# generated using pymatgen
data_KInI3
_symmetry_space_group_name_H-M   'P 1'
_cell_length_a   8.72025424
_cell_length_b   8.72025474
_cell_length_c   8.72025472
_cell_angle_alpha   59.99999851
_cell_angle_beta   59.99999781
_cell_angle_gamma   59.99999790
_symmetry_Int_Tables_number   1
_chemical_formula_structural   KInI3
_chemical_formula_sum   'K2 In2 I6'
_cell_volume   468.89162247
_cell_formula_units_Z   2
loop_
 _symmetry_equiv_pos_site_id
 _symmetry_equiv_pos_as_xyz
  1  'x, y, z'
loop_
 _atom_site_type_symbol
 _atom_site_label
 _atom_site_symmetry_multiplicity
 _atom_site_fract_x
 _atom_site_fract_y
 _atom_site_fract_z
 _atom_site_occupancy
  K  K0  1  0.250000  0.250000  0.250000  1
  K  K1  1  0.750000  0.750000  0.750000  1
  In  In2  1  0.500000  0.500000  0.500000  1
  In  In3  1  0.000000  -0.000000  -0.000000  1
  I  I4  1  0.241283  0.758717  0.241283  1
  I  I5  1  0.758717  0.758717  0.241283  1
  I  I6  1  0.758717  0.241283  0.758717  1
  I  I7  1  0.758717  0.241283  0.241283  1
  I  I8  1  0.241283  0.758717  0.758717  1
  I  I9  1  0.241283  0.241283  0.758717  1
