# generated using pymatgen
data_V2ZnO4
_symmetry_space_group_name_H-M   'P 1'
_cell_length_a   6.06983367
_cell_length_b   6.06690390
_cell_length_c   18.22222324
_cell_angle_alpha   60.00724229
_cell_angle_beta   59.99990021
_cell_angle_gamma   60.03607917
_symmetry_Int_Tables_number   1
_chemical_formula_structural   V2ZnO4
_chemical_formula_sum   'V12 Zn6 O24'
_cell_volume   474.64837590
_cell_formula_units_Z   6
loop_
 _symmetry_equiv_pos_site_id
 _symmetry_equiv_pos_as_xyz
  1  'x, y, z'
loop_
 _atom_site_type_symbol
 _atom_site_label
 _atom_site_symmetry_multiplicity
 _atom_site_fract_x
 _atom_site_fract_y
 _atom_site_fract_z
 _atom_site_occupancy
  V  V0  1  0.498290  0.497973  0.166575  1
  V  V1  1  0.497893  0.004125  0.166556  1
  V  V2  1  0.498562  0.498994  0.500068  1
  V  V3  1  0.004117  0.498299  0.166528  1
  V  V4  1  0.498689  0.002386  0.499822  1
  V  V5  1  0.500725  0.501210  0.665434  1
  V  V6  1  0.876019  0.875987  0.290646  1
  V  V7  1  0.500816  0.499257  0.832603  1
  V  V8  1  0.003065  0.499331  0.499333  1
  V  V9  1  0.501149  0.002771  0.832428  1
  V  V10  1  0.003148  0.500282  0.832383  1
  V  V11  1  0.875466  0.875373  0.957930  1
  Zn  Zn12  1  0.121048  0.121195  0.045532  1
  Zn  Zn13  1  0.119521  0.119865  0.380238  1
  Zn  Zn14  1  0.498981  0.498373  0.334851  1
  Zn  Zn15  1  0.126323  0.126269  0.706935  1
  Zn  Zn16  1  0.499009  0.499229  0.000794  1
  Zn  Zn17  1  0.876692  0.876345  0.623520  1
  O  O18  1  0.257731  0.253401  0.089250  1
  O  O19  1  0.259762  0.259544  0.240328  1
  O  O20  1  0.253522  0.721146  0.089247  1
  O  O21  1  0.721105  0.258040  0.089165  1
  O  O22  1  0.252815  0.252382  0.425091  1
  O  O23  1  0.271968  0.745385  0.244405  1
  O  O24  1  0.258406  0.259038  0.574225  1
  O  O25  1  0.749494  0.272032  0.244297  1
  O  O26  1  0.741350  0.741632  0.091840  1
  O  O27  1  0.252560  0.719495  0.425214  1
  O  O28  1  0.719697  0.252462  0.425182  1
  O  O29  1  0.745587  0.749498  0.244289  1
  O  O30  1  0.263310  0.262564  0.752057  1
  O  O31  1  0.281654  0.740850  0.578610  1
  O  O32  1  0.738390  0.282669  0.579713  1
  O  O33  1  0.260694  0.261832  0.905201  1
  O  O34  1  0.745184  0.744691  0.421987  1
  O  O35  1  0.262790  0.718183  0.752442  1
  O  O36  1  0.719242  0.261454  0.752889  1
  O  O37  1  0.736936  0.738124  0.580530  1
  O  O38  1  0.268847  0.750556  0.910132  1
  O  O39  1  0.750299  0.269388  0.910089  1
  O  O40  1  0.739166  0.737961  0.761701  1
  O  O41  1  0.749982  0.750413  0.909945  1
