# generated using pymatgen
data_B5NO12
_symmetry_space_group_name_H-M   'P 1'
_cell_length_a   7.47031007
_cell_length_b   7.91559799
_cell_length_c   9.57286465
_cell_angle_alpha   90.00000000
_cell_angle_beta   90.00000000
_cell_angle_gamma   99.08106319
_symmetry_Int_Tables_number   1
_chemical_formula_structural   B5NO12
_chemical_formula_sum   'B10 N2 O24'
_cell_volume   558.96734749
_cell_formula_units_Z   2
loop_
 _symmetry_equiv_pos_site_id
 _symmetry_equiv_pos_as_xyz
  1  'x, y, z'
loop_
 _atom_site_type_symbol
 _atom_site_label
 _atom_site_symmetry_multiplicity
 _atom_site_fract_x
 _atom_site_fract_y
 _atom_site_fract_z
 _atom_site_occupancy
  B  B0  1  0.603788  0.420291  0.746394  1
  B  B1  1  0.103788  0.920291  0.253606  1
  B  B2  1  0.628583  0.521456  0.505354  1
  B  B3  1  0.128583  0.021456  0.494646  1
  B  B4  1  0.609762  0.234127  0.537252  1
  B  B5  1  0.109762  0.734127  0.462748  1
  B  B6  1  0.445171  0.427275  0.964745  1
  B  B7  1  0.945171  0.927275  0.035255  1
  B  B8  1  0.761838  0.466018  0.972457  1
  B  B9  1  0.261838  0.966018  0.027543  1
  N  N10  1  0.637857  0.660882  0.277254  1
  N  N11  1  0.137857  0.160882  0.722746  1
  O  O12  1  0.614736  0.561701  0.637265  1
  O  O13  1  0.114736  0.061701  0.362735  1
  O  O14  1  0.633986  0.369059  0.442048  1
  O  O15  1  0.133986  0.869059  0.557952  1
  O  O16  1  0.590758  0.251617  0.673855  1
  O  O17  1  0.090758  0.751617  0.326145  1
  O  O18  1  0.434407  0.422236  0.825825  1
  O  O19  1  0.934407  0.922236  0.174175  1
  O  O20  1  0.595159  0.443277  0.045576  1
  O  O21  1  0.095159  0.943277  0.954424  1
  O  O22  1  0.765564  0.449970  0.830820  1
  O  O23  1  0.265564  0.949970  0.169180  1
  O  O24  1  0.631282  0.673426  0.404857  1
  O  O25  1  0.131282  0.173426  0.595143  1
  O  O26  1  0.597219  0.061008  0.485743  1
  O  O27  1  0.097219  0.561008  0.514257  1
  O  O28  1  0.268105  0.416139  0.038151  1
  O  O29  1  0.768105  0.916139  0.961849  1
  O  O30  1  0.914824  0.509485  0.049447  1
  O  O31  1  0.414824  0.009485  0.950553  1
  O  O32  1  0.275802  0.444405  0.172927  1
  O  O33  1  0.775802  0.944405  0.827073  1
  O  O34  1  0.607660  0.047628  0.346169  1
  O  O35  1  0.107660  0.547628  0.653831  1
