# generated using pymatgen
data_Ag2AsS2
_symmetry_space_group_name_H-M   'P 1'
_cell_length_a   6.92834035
_cell_length_b   9.75737441
_cell_length_c   13.19459235
_cell_angle_alpha   90.00000000
_cell_angle_beta   90.00000000
_cell_angle_gamma   98.70096148
_symmetry_Int_Tables_number   1
_chemical_formula_structural   Ag2AsS2
_chemical_formula_sum   'Ag16 As8 S16'
_cell_volume   881.72069379
_cell_formula_units_Z   8
loop_
 _symmetry_equiv_pos_site_id
 _symmetry_equiv_pos_as_xyz
  1  'x, y, z'
loop_
 _atom_site_type_symbol
 _atom_site_label
 _atom_site_symmetry_multiplicity
 _atom_site_fract_x
 _atom_site_fract_y
 _atom_site_fract_z
 _atom_site_occupancy
  Ag  Ag0  1  0.920534  0.237130  0.405576  1
  Ag  Ag1  1  0.420534  0.237130  0.594424  1
  Ag  Ag2  1  0.223728  0.041315  0.088808  1
  Ag  Ag3  1  0.723728  0.041315  0.911192  1
  Ag  Ag4  1  0.624644  0.693311  0.093035  1
  Ag  Ag5  1  0.124644  0.693311  0.906965  1
  Ag  Ag6  1  0.130296  0.357828  0.107299  1
  Ag  Ag7  1  0.630296  0.357828  0.892701  1
  Ag  Ag8  1  0.398389  0.566744  0.394397  1
  Ag  Ag9  1  0.898389  0.566744  0.605603  1
  Ag  Ag10  1  0.806845  0.959902  0.208204  1
  Ag  Ag11  1  0.306845  0.959902  0.791796  1
  Ag  Ag12  1  0.151372  0.840240  0.505609  1
  Ag  Ag13  1  0.651372  0.840240  0.494391  1
  Ag  Ag14  1  0.356533  0.962386  0.315065  1
  Ag  Ag15  1  0.856533  0.962386  0.684935  1
  As  As16  1  0.440596  0.313622  0.312814  1
  As  As17  1  0.940596  0.313622  0.687186  1
  As  As18  1  0.851074  0.616741  0.317281  1
  As  As19  1  0.351074  0.616741  0.682719  1
  As  As20  1  0.685187  0.307041  0.166993  1
  As  As21  1  0.185187  0.307041  0.833007  1
  As  As22  1  0.107404  0.626256  0.176827  1
  As  As23  1  0.607404  0.626256  0.823173  1
  S  S24  1  0.548699  0.156649  0.418397  1
  S  S25  1  0.048699  0.156649  0.581603  1
  S  S26  1  0.996389  0.793235  0.081570  1
  S  S27  1  0.496389  0.793235  0.918430  1
  S  S28  1  0.153177  0.190707  0.255280  1
  S  S29  1  0.653177  0.190707  0.744720  1
  S  S30  1  0.389903  0.732784  0.246441  1
  S  S31  1  0.889903  0.732784  0.753559  1
  S  S32  1  0.910639  0.846390  0.369397  1
  S  S33  1  0.410639  0.846390  0.630603  1
  S  S34  1  0.018861  0.511850  0.432259  1
  S  S35  1  0.518861  0.511850  0.567741  1
  S  S36  1  0.603240  0.089797  0.100964  1
  S  S37  1  0.103240  0.089797  0.899036  1
  S  S38  1  0.511591  0.428372  0.065158  1
  S  S39  1  0.011591  0.428372  0.934842  1
