# generated using pymatgen
data_Zn(AgO2)2
_symmetry_space_group_name_H-M   'P 1'
_cell_length_a   6.40889622
_cell_length_b   6.40885150
_cell_length_c   18.93059036
_cell_angle_alpha   59.58911965
_cell_angle_beta   59.58907945
_cell_angle_gamma   59.95750432
_symmetry_Int_Tables_number   1
_chemical_formula_structural   Zn(AgO2)2
_chemical_formula_sum   'Zn6 Ag12 O24'
_cell_volume   546.19697461
_cell_formula_units_Z   6
loop_
 _symmetry_equiv_pos_site_id
 _symmetry_equiv_pos_as_xyz
  1  'x, y, z'
loop_
 _atom_site_type_symbol
 _atom_site_label
 _atom_site_symmetry_multiplicity
 _atom_site_fract_x
 _atom_site_fract_y
 _atom_site_fract_z
 _atom_site_occupancy
  Zn  Zn0  1  0.118192  0.118187  0.048475  1
  Zn  Zn1  1  0.119599  0.119597  0.380377  1
  Zn  Zn2  1  0.498909  0.498909  0.334525  1
  Zn  Zn3  1  0.120056  0.120058  0.713238  1
  Zn  Zn4  1  0.498032  0.498035  0.001937  1
  Zn  Zn5  1  0.879670  0.879667  0.620346  1
  Ag  Ag6  1  0.498998  0.498996  0.166838  1
  Ag  Ag7  1  0.498592  0.001835  0.166899  1
  Ag  Ag8  1  0.497539  0.497534  0.499637  1
  Ag  Ag9  1  0.001832  0.498594  0.166898  1
  Ag  Ag10  1  0.497477  0.006158  0.499677  1
  Ag  Ag11  1  0.501034  0.501037  0.665604  1
  Ag  Ag12  1  0.876446  0.876461  0.290175  1
  Ag  Ag13  1  0.501327  0.501332  0.833667  1
  Ag  Ag14  1  0.006158  0.497474  0.499677  1
  Ag  Ag15  1  0.501213  0.996113  0.833714  1
  Ag  Ag16  1  0.996110  0.501217  0.833714  1
  Ag  Ag17  1  0.878613  0.878612  0.954692  1
  O  O18  1  0.258876  0.258877  0.087203  1
  O  O19  1  0.249537  0.249574  0.250031  1
  O  O20  1  0.258749  0.719995  0.087437  1
  O  O21  1  0.719989  0.258742  0.087441  1
  O  O22  1  0.261781  0.261777  0.415111  1
  O  O23  1  0.300530  0.737317  0.241745  1
  O  O24  1  0.251227  0.251234  0.582057  1
  O  O25  1  0.737307  0.300527  0.241752  1
  O  O26  1  0.744249  0.744190  0.089923  1
  O  O27  1  0.262102  0.731422  0.414951  1
  O  O28  1  0.731422  0.262097  0.414952  1
  O  O29  1  0.737071  0.737055  0.241936  1
  O  O30  1  0.249545  0.249542  0.758385  1
  O  O31  1  0.264091  0.749496  0.578878  1
  O  O32  1  0.749493  0.264090  0.578879  1
  O  O33  1  0.246238  0.246250  0.920349  1
  O  O34  1  0.737385  0.737379  0.429422  1
  O  O35  1  0.249721  0.725600  0.758299  1
  O  O36  1  0.725596  0.249720  0.758300  1
  O  O37  1  0.749851  0.749854  0.578599  1
  O  O38  1  0.300178  0.735953  0.909197  1
  O  O39  1  0.735946  0.300176  0.909199  1
  O  O40  1  0.753409  0.753396  0.746685  1
  O  O41  1  0.735913  0.735918  0.909179  1
