# generated using pymatgen
data_Ho6Al7Cu16
_symmetry_space_group_name_H-M   'P 1'
_cell_length_a   8.70515671
_cell_length_b   8.70515671
_cell_length_c   8.70515671
_cell_angle_alpha   60.00000000
_cell_angle_beta   60.00000000
_cell_angle_gamma   60.00000000
_symmetry_Int_Tables_number   1
_chemical_formula_structural   Ho6Al7Cu16
_chemical_formula_sum   'Ho6 Al7 Cu16'
_cell_volume   466.46040285
_cell_formula_units_Z   1
loop_
 _symmetry_equiv_pos_site_id
 _symmetry_equiv_pos_as_xyz
  1  'x, y, z'
loop_
 _atom_site_type_symbol
 _atom_site_label
 _atom_site_symmetry_multiplicity
 _atom_site_fract_x
 _atom_site_fract_y
 _atom_site_fract_z
 _atom_site_occupancy
  Ho  Ho0  1  0.709539  0.290461  0.290461  1
  Ho  Ho1  1  0.709539  0.290461  0.709539  1
  Ho  Ho2  1  0.709539  0.709539  0.290461  1
  Ho  Ho3  1  0.290461  0.709539  0.709539  1
  Ho  Ho4  1  0.290461  0.709539  0.290461  1
  Ho  Ho5  1  0.290461  0.290461  0.709539  1
  Al  Al6  1  -0.000000  0.000000  0.000000  1
  Al  Al7  1  0.500000  0.000000  0.000000  1
  Al  Al8  1  0.500000  0.000000  0.500000  1
  Al  Al9  1  0.500000  0.500000  0.000000  1
  Al  Al10  1  -0.000000  0.500000  0.500000  1
  Al  Al11  1  -0.000000  0.500000  0.000000  1
  Al  Al12  1  -0.000000  0.000000  0.500000  1
  Cu  Cu13  1  0.638152  0.120616  0.120616  1
  Cu  Cu14  1  0.120616  0.638152  0.120616  1
  Cu  Cu15  1  0.120616  0.120616  0.638152  1
  Cu  Cu16  1  0.120616  0.120616  0.120616  1
  Cu  Cu17  1  0.361848  0.879384  0.879384  1
  Cu  Cu18  1  0.879384  0.361848  0.879384  1
  Cu  Cu19  1  0.879384  0.879384  0.361848  1
  Cu  Cu20  1  0.879384  0.879384  0.879384  1
  Cu  Cu21  1  0.018368  0.327211  0.327211  1
  Cu  Cu22  1  0.327211  0.018368  0.327211  1
  Cu  Cu23  1  0.327211  0.327211  0.018368  1
  Cu  Cu24  1  0.327211  0.327211  0.327211  1
  Cu  Cu25  1  0.981632  0.672789  0.672789  1
  Cu  Cu26  1  0.672789  0.981632  0.672789  1
  Cu  Cu27  1  0.672789  0.672789  0.981632  1
  Cu  Cu28  1  0.672789  0.672789  0.672789  1
