# generated using pymatgen
data_YbCuSe2
_symmetry_space_group_name_H-M   'P 1'
_cell_length_a   4.06389793
_cell_length_b   4.06270770
_cell_length_c   6.60424208
_cell_angle_alpha   90.01634958
_cell_angle_beta   89.99999997
_cell_angle_gamma   120.00969081
_symmetry_Int_Tables_number   1
_chemical_formula_structural   YbCuSe2
_chemical_formula_sum   'Yb1 Cu1 Se2'
_cell_volume   94.42120590
_cell_formula_units_Z   1
loop_
 _symmetry_equiv_pos_site_id
 _symmetry_equiv_pos_as_xyz
  1  'x, y, z'
loop_
 _atom_site_type_symbol
 _atom_site_label
 _atom_site_symmetry_multiplicity
 _atom_site_fract_x
 _atom_site_fract_y
 _atom_site_fract_z
 _atom_site_occupancy
  Yb  Yb0  1  0.000027  0.000055  0.987074  1
  Cu  Cu1  1  0.333283  0.666566  0.382106  1
  Se  Se2  1  0.333304  0.666609  0.739870  1
  Se  Se3  1  0.666685  0.333371  0.265951  1
