# generated using pymatgen
data_W2Se3S
_symmetry_space_group_name_H-M   'P 1'
_cell_length_a   3.28697453
_cell_length_b   3.28694225
_cell_length_c   37.44428325
_cell_angle_alpha   89.99991754
_cell_angle_beta   90.00000000
_cell_angle_gamma   120.00032495
_symmetry_Int_Tables_number   1
_chemical_formula_structural   W2Se3S
_chemical_formula_sum   'W4 Se6 S2'
_cell_volume   350.35082489
_cell_formula_units_Z   2
loop_
 _symmetry_equiv_pos_site_id
 _symmetry_equiv_pos_as_xyz
  1  'x, y, z'
loop_
 _atom_site_type_symbol
 _atom_site_label
 _atom_site_symmetry_multiplicity
 _atom_site_fract_x
 _atom_site_fract_y
 _atom_site_fract_z
 _atom_site_occupancy
  W  W0  1  0.333309  0.666618  0.093919  1
  W  W1  1  0.333315  0.666631  0.469659  1
  W  W2  1  0.666687  0.333374  0.281789  1
  W  W3  1  0.666691  0.333382  0.657547  1
  Se  Se4  1  0.333343  0.666687  0.327067  1
  Se  Se5  1  0.333357  0.666715  0.702827  1
  Se  Se6  1  0.666645  0.333289  0.424382  1
  Se  Se7  1  0.666658  0.333315  0.514939  1
  Se  Se8  1  0.333352  0.666705  0.236517  1
  Se  Se9  1  0.333353  0.666706  0.612251  1
  S  S10  1  0.666642  0.333284  0.052769  1
  S  S11  1  0.666647  0.333293  0.135082  1
