# generated using pymatgen
data_PaInPd2
_symmetry_space_group_name_H-M   'P 1'
_cell_length_a   4.86096866
_cell_length_b   4.86025304
_cell_length_c   4.86114330
_cell_angle_alpha   60.00113574
_cell_angle_beta   59.99561146
_cell_angle_gamma   59.99865701
_symmetry_Int_Tables_number   1
_chemical_formula_structural   PaInPd2
_chemical_formula_sum   'Pa1 In1 Pd2'
_cell_volume   81.20635949
_cell_formula_units_Z   1
loop_
 _symmetry_equiv_pos_site_id
 _symmetry_equiv_pos_as_xyz
  1  'x, y, z'
loop_
 _atom_site_type_symbol
 _atom_site_label
 _atom_site_symmetry_multiplicity
 _atom_site_fract_x
 _atom_site_fract_y
 _atom_site_fract_z
 _atom_site_occupancy
  Pa  Pa0  1  0.749996  0.750004  0.749989  1
  In  In1  1  0.250009  0.249987  0.250028  1
  Pd  Pd2  1  0.999985  0.000033  0.999973  1
  Pd  Pd3  1  0.500009  0.499975  0.500009  1
