# generated using pymatgen
data_TlCu3Te2
_symmetry_space_group_name_H-M   'P 1'
_cell_length_a   8.57050346
_cell_length_b   8.57107206
_cell_length_c   14.44559958
_cell_angle_alpha   90.00000000
_cell_angle_beta   89.92597548
_cell_angle_gamma   90.00000000
_symmetry_Int_Tables_number   1
_chemical_formula_structural   TlCu3Te2
_chemical_formula_sum   'Tl8 Cu24 Te16'
_cell_volume   1061.14978670
_cell_formula_units_Z   8
loop_
 _symmetry_equiv_pos_site_id
 _symmetry_equiv_pos_as_xyz
  1  'x, y, z'
loop_
 _atom_site_type_symbol
 _atom_site_label
 _atom_site_symmetry_multiplicity
 _atom_site_fract_x
 _atom_site_fract_y
 _atom_site_fract_z
 _atom_site_occupancy
  Tl  Tl0  1  0.248646  0.248374  0.998759  1
  Tl  Tl1  1  0.748646  0.751626  0.498759  1
  Tl  Tl2  1  0.749312  0.753730  0.998733  1
  Tl  Tl3  1  0.249312  0.246270  0.498733  1
  Tl  Tl4  1  0.247314  0.245859  0.751277  1
  Tl  Tl5  1  0.747314  0.754141  0.251277  1
  Tl  Tl6  1  0.753623  0.753598  0.751339  1
  Tl  Tl7  1  0.253623  0.246402  0.251339  1
  Cu  Cu8  1  0.867261  0.130597  0.575528  1
  Cu  Cu9  1  0.367261  0.869403  0.075528  1
  Cu  Cu10  1  0.132366  0.634791  0.075984  1
  Cu  Cu11  1  0.632366  0.365209  0.575984  1
  Cu  Cu12  1  0.135916  0.872657  0.427097  1
  Cu  Cu13  1  0.635916  0.127343  0.927097  1
  Cu  Cu14  1  0.870999  0.362179  0.921633  1
  Cu  Cu15  1  0.370999  0.637821  0.421633  1
  Cu  Cu16  1  0.625170  0.376416  0.033072  1
  Cu  Cu17  1  0.125170  0.623584  0.533072  1
  Cu  Cu18  1  0.375320  0.873361  0.532840  1
  Cu  Cu19  1  0.875320  0.126639  0.032840  1
  Cu  Cu20  1  0.373788  0.626928  0.968027  1
  Cu  Cu21  1  0.873788  0.373072  0.468027  1
  Cu  Cu22  1  0.626014  0.125156  0.461716  1
  Cu  Cu23  1  0.126014  0.874844  0.961716  1
  Cu  Cu24  1  0.751004  0.246855  0.752149  1
  Cu  Cu25  1  0.251004  0.753145  0.252149  1
  Cu  Cu26  1  0.875696  0.375424  0.295092  1
  Cu  Cu27  1  0.375696  0.624576  0.795092  1
  Cu  Cu28  1  0.858322  0.121384  0.207213  1
  Cu  Cu29  1  0.358322  0.878616  0.707213  1
  Cu  Cu30  1  0.121080  0.641163  0.707703  1
  Cu  Cu31  1  0.621080  0.358837  0.207703  1
  Te  Te32  1  0.416093  0.583266  0.616299  1
  Te  Te33  1  0.916093  0.416734  0.116299  1
  Te  Te34  1  0.585587  0.086027  0.118131  1
  Te  Te35  1  0.085587  0.913973  0.618131  1
  Te  Te36  1  0.580557  0.412942  0.383312  1
  Te  Te37  1  0.080557  0.587058  0.883312  1
  Te  Te38  1  0.412681  0.918429  0.881897  1
  Te  Te39  1  0.912681  0.081571  0.381897  1
  Te  Te40  1  0.576733  0.423616  0.859526  1
  Te  Te41  1  0.076733  0.576384  0.359526  1
  Te  Te42  1  0.432632  0.931927  0.359191  1
  Te  Te43  1  0.932632  0.068073  0.859191  1
  Te  Te44  1  0.425229  0.576829  0.141378  1
  Te  Te45  1  0.925229  0.423171  0.641378  1
  Te  Te46  1  0.576655  0.074461  0.640105  1
  Te  Te47  1  0.076656  0.925539  0.140105  1
