# generated using pymatgen
data_Nb3(CuS3)2
_symmetry_space_group_name_H-M   'P 1'
_cell_length_a   3.38469601
_cell_length_b   3.38469601
_cell_length_c   40.71447554
_cell_angle_alpha   90.00005383
_cell_angle_beta   89.99994617
_cell_angle_gamma   120.00025696
_symmetry_Int_Tables_number   1
_chemical_formula_structural   Nb3(CuS3)2
_chemical_formula_sum   'Nb6 Cu4 S12'
_cell_volume   403.94077078
_cell_formula_units_Z   2
loop_
 _symmetry_equiv_pos_site_id
 _symmetry_equiv_pos_as_xyz
  1  'x, y, z'
loop_
 _atom_site_type_symbol
 _atom_site_label
 _atom_site_symmetry_multiplicity
 _atom_site_fract_x
 _atom_site_fract_y
 _atom_site_fract_z
 _atom_site_occupancy
  Nb  Nb0  1  0.666651  0.333349  0.083324  1
  Nb  Nb1  1  0.666660  0.333340  0.425275  1
  Nb  Nb2  1  0.666669  0.333331  0.750398  1
  Nb  Nb3  1  0.333353  0.666647  0.241562  1
  Nb  Nb4  1  0.333348  0.666652  0.586314  1
  Nb  Nb5  1  0.333342  0.666658  0.919455  1
  Cu  Cu6  1  0.666661  0.333339  0.012247  1
  Cu  Cu7  1  0.666674  0.333326  0.353471  1
  Cu  Cu8  1  0.666650  0.333350  0.679187  1
  Cu  Cu9  1  0.333362  0.666638  0.313309  1
  S  S10  1  0.666685  0.333315  0.203750  1
  S  S11  1  0.666686  0.333314  0.548931  1
  S  S12  1  0.666671  0.333329  0.882099  1
  S  S13  1  0.333320  0.666680  0.120790  1
  S  S14  1  0.333324  0.666676  0.463091  1
  S  S15  1  0.333337  0.666663  0.787939  1
  S  S16  1  0.333308  0.666692  0.043710  1
  S  S17  1  0.333329  0.666671  0.386329  1
  S  S18  1  0.333325  0.666675  0.710791  1
  S  S19  1  0.666683  0.333317  0.280469  1
  S  S20  1  0.666688  0.333312  0.624879  1
  S  S21  1  0.666674  0.333326  0.958011  1
