# generated using pymatgen
data_Cu6SnO8
_symmetry_space_group_name_H-M   'P 1'
_cell_length_a   6.53824191
_cell_length_b   6.54700663
_cell_length_c   6.55218707
_cell_angle_alpha   59.89347946
_cell_angle_beta   59.84442235
_cell_angle_gamma   59.83167048
_symmetry_Int_Tables_number   1
_chemical_formula_structural   Cu6SnO8
_chemical_formula_sum   'Cu6 Sn1 O8'
_cell_volume   197.67805313
_cell_formula_units_Z   1
loop_
 _symmetry_equiv_pos_site_id
 _symmetry_equiv_pos_as_xyz
  1  'x, y, z'
loop_
 _atom_site_type_symbol
 _atom_site_label
 _atom_site_symmetry_multiplicity
 _atom_site_fract_x
 _atom_site_fract_y
 _atom_site_fract_z
 _atom_site_occupancy
  Cu  Cu0  1  0.500000  -0.000000  0.499998  1
  Cu  Cu1  1  0.500002  0.500000  -0.000000  1
  Cu  Cu2  1  0.999998  0.500001  0.500000  1
  Cu  Cu3  1  0.999998  0.500001  0.000002  1
  Cu  Cu4  1  0.000001  0.000001  0.499998  1
  Cu  Cu5  1  0.500002  0.999998  0.000001  1
  Sn  Sn6  1  0.499999  0.499999  0.500001  1
  O  O7  1  0.639677  0.079021  0.640504  1
  O  O8  1  0.079121  0.639959  0.640338  1
  O  O9  1  0.639878  0.640331  0.078867  1
  O  O10  1  0.920877  0.360042  0.359664  1
  O  O11  1  0.639962  0.640456  0.640760  1
  O  O12  1  0.360037  0.359546  0.359240  1
  O  O13  1  0.360325  0.920975  0.359495  1
  O  O14  1  0.360123  0.359668  0.921133  1
