# generated using pymatgen
data_Mo2PdRh2
_symmetry_space_group_name_H-M   'P 1'
_cell_length_a   2.77822217
_cell_length_b   2.77818501
_cell_length_c   22.48244014
_cell_angle_alpha   90.00450010
_cell_angle_beta   89.99640196
_cell_angle_gamma   119.93418576
_symmetry_Int_Tables_number   1
_chemical_formula_structural   Mo2PdRh2
_chemical_formula_sum   'Mo4 Pd2 Rh4'
_cell_volume   150.37992012
_cell_formula_units_Z   2
loop_
 _symmetry_equiv_pos_site_id
 _symmetry_equiv_pos_as_xyz
  1  'x, y, z'
loop_
 _atom_site_type_symbol
 _atom_site_label
 _atom_site_symmetry_multiplicity
 _atom_site_fract_x
 _atom_site_fract_y
 _atom_site_fract_z
 _atom_site_occupancy
  Mo  Mo0  1  0.666781  0.333223  0.548333  1
  Mo  Mo1  1  0.666811  0.333197  0.748751  1
  Mo  Mo2  1  0.666801  0.333200  0.945345  1
  Mo  Mo3  1  0.333252  0.666756  0.052478  1
  Pd  Pd4  1  0.666743  0.333261  0.150316  1
  Pd  Pd5  1  0.666734  0.333248  0.350968  1
  Rh  Rh6  1  0.333247  0.666760  0.251665  1
  Rh  Rh7  1  0.333235  0.666759  0.454309  1
  Rh  Rh8  1  0.333284  0.666710  0.650059  1
  Rh  Rh9  1  0.333112  0.666886  0.847778  1
