# generated using pymatgen
data_Ca(FeO2)2
_symmetry_space_group_name_H-M   'P 1'
_cell_length_a   6.28485661
_cell_length_b   6.28185003
_cell_length_c   18.90720753
_cell_angle_alpha   60.09406282
_cell_angle_beta   60.04476851
_cell_angle_gamma   60.08406155
_symmetry_Int_Tables_number   1
_chemical_formula_structural   Ca(FeO2)2
_chemical_formula_sum   'Ca6 Fe12 O24'
_cell_volume   528.72003521
_cell_formula_units_Z   6
loop_
 _symmetry_equiv_pos_site_id
 _symmetry_equiv_pos_as_xyz
  1  'x, y, z'
loop_
 _atom_site_type_symbol
 _atom_site_label
 _atom_site_symmetry_multiplicity
 _atom_site_fract_x
 _atom_site_fract_y
 _atom_site_fract_z
 _atom_site_occupancy
  Ca  Ca0  1  0.122744  0.123237  0.043327  1
  Ca  Ca1  1  0.121169  0.120370  0.379061  1
  Ca  Ca2  1  0.499487  0.499008  0.002132  1
  Ca  Ca3  1  0.121017  0.121393  0.711818  1
  Ca  Ca4  1  0.880847  0.880549  0.285908  1
  Ca  Ca5  1  0.873398  0.873508  0.627158  1
  Fe  Fe6  1  0.002258  0.494460  0.169321  1
  Fe  Fe7  1  0.493515  0.493762  0.170055  1
  Fe  Fe8  1  0.001348  0.499945  0.499583  1
  Fe  Fe9  1  0.494136  0.002310  0.169442  1
  Fe  Fe10  1  0.500019  0.499738  0.333373  1
  Fe  Fe11  1  0.499601  0.499547  0.499236  1
  Fe  Fe12  1  0.013056  0.497509  0.830034  1
  Fe  Fe13  1  0.499817  0.001824  0.499502  1
  Fe  Fe14  1  0.498360  0.012462  0.830265  1
  Fe  Fe15  1  0.504212  0.504401  0.661527  1
  Fe  Fe16  1  0.498425  0.499031  0.829460  1
  Fe  Fe17  1  0.882221  0.882023  0.952584  1
  O  O18  1  0.245421  0.244940  0.102681  1
  O  O19  1  0.261100  0.261688  0.237857  1
  O  O20  1  0.244882  0.701283  0.103438  1
  O  O21  1  0.700867  0.244929  0.103423  1
  O  O22  1  0.309054  0.727070  0.245363  1
  O  O23  1  0.265788  0.265756  0.424614  1
  O  O24  1  0.727174  0.309006  0.245167  1
  O  O25  1  0.754893  0.754010  0.079611  1
  O  O26  1  0.266100  0.694010  0.424448  1
  O  O27  1  0.264609  0.264564  0.568274  1
  O  O28  1  0.727414  0.727870  0.245027  1
  O  O29  1  0.694561  0.266343  0.424085  1
  O  O30  1  0.301242  0.732766  0.577021  1
  O  O31  1  0.273403  0.271335  0.753197  1
  O  O32  1  0.732723  0.301293  0.576903  1
  O  O33  1  0.734541  0.734512  0.432318  1
  O  O34  1  0.268724  0.269778  0.897546  1
  O  O35  1  0.272451  0.694617  0.752863  1
  O  O36  1  0.732936  0.733620  0.577579  1
  O  O37  1  0.694387  0.273587  0.752774  1
  O  O38  1  0.263555  0.764691  0.903147  1
  O  O39  1  0.728247  0.727259  0.772630  1
  O  O40  1  0.765847  0.263111  0.903036  1
  O  O41  1  0.764448  0.766886  0.903211  1
