# generated using pymatgen
data_CaMn8O16
_symmetry_space_group_name_H-M   'P 1'
_cell_length_a   5.96712515
_cell_length_b   9.79869616
_cell_length_c   10.02349553
_cell_angle_alpha   89.67290217
_cell_angle_beta   89.99804178
_cell_angle_gamma   89.99991797
_symmetry_Int_Tables_number   1
_chemical_formula_structural   CaMn8O16
_chemical_formula_sum   'Ca2 Mn16 O32'
_cell_volume   586.06469692
_cell_formula_units_Z   2
loop_
 _symmetry_equiv_pos_site_id
 _symmetry_equiv_pos_as_xyz
  1  'x, y, z'
loop_
 _atom_site_type_symbol
 _atom_site_label
 _atom_site_symmetry_multiplicity
 _atom_site_fract_x
 _atom_site_fract_y
 _atom_site_fract_z
 _atom_site_occupancy
  Ca  Ca0  1  0.998824  0.491583  0.425021  1
  Ca  Ca1  1  0.751120  0.991244  0.925059  1
  Mn  Mn2  1  0.497938  0.172795  0.350447  1
  Mn  Mn3  1  0.995880  0.163462  0.342983  1
  Mn  Mn4  1  0.505584  0.347027  0.830514  1
  Mn  Mn5  1  0.001816  0.346191  0.831378  1
  Mn  Mn6  1  0.999149  0.656642  0.155372  1
  Mn  Mn7  1  0.500456  0.647011  0.165254  1
  Mn  Mn8  1  0.999746  0.831744  0.644843  1
  Mn  Mn9  1  0.501526  0.829026  0.642738  1
  Mn  Mn10  1  0.753943  0.663303  0.842669  1
  Mn  Mn11  1  0.251987  0.672649  0.850483  1
  Mn  Mn12  1  0.748274  0.846246  0.331497  1
  Mn  Mn13  1  0.244667  0.847259  0.330533  1
  Mn  Mn14  1  0.750900  0.156501  0.655442  1
  Mn  Mn15  1  0.249306  0.147208  0.665097  1
  Mn  Mn16  1  0.749995  0.331585  0.144904  1
  Mn  Mn17  1  0.248826  0.329039  0.142819  1
  O  O18  1  0.749591  0.957554  0.658495  1
  O  O19  1  0.251205  0.952985  0.655227  1
  O  O20  1  0.757950  0.675222  0.032738  1
  O  O21  1  0.248987  0.673222  0.039478  1
  O  O22  1  0.752411  0.325675  0.953396  1
  O  O23  1  0.253294  0.325930  0.951886  1
  O  O24  1  0.749215  0.040129  0.333950  1
  O  O25  1  0.243261  0.040492  0.337073  1
  O  O26  1  0.000416  0.457731  0.158559  1
  O  O27  1  0.498835  0.453069  0.155326  1
  O  O28  1  0.991956  0.175140  0.532863  1
  O  O29  1  0.501012  0.173172  0.539688  1
  O  O30  1  0.496710  0.825905  0.451770  1
  O  O31  1  0.997630  0.825652  0.453269  1
  O  O32  1  0.506689  0.540353  0.837011  1
  O  O33  1  0.000759  0.539991  0.833862  1
  O  O34  1  0.519690  0.806378  0.836679  1
  O  O35  1  0.983338  0.808285  0.837787  1
  O  O36  1  0.994166  0.849262  0.199851  1
  O  O37  1  0.499754  0.842384  0.203455  1
  O  O38  1  0.995931  0.198953  0.146013  1
  O  O39  1  0.501842  0.200706  0.154847  1
  O  O40  1  0.526556  0.147383  0.797786  1
  O  O41  1  0.987000  0.145944  0.792899  1
  O  O42  1  0.766674  0.308426  0.337951  1
  O  O43  1  0.230227  0.306559  0.336848  1
  O  O44  1  0.755831  0.349067  0.699986  1
  O  O45  1  0.250308  0.342267  0.703573  1
  O  O46  1  0.754119  0.698771  0.645850  1
  O  O47  1  0.248131  0.700489  0.654621  1
  O  O48  1  0.763075  0.646129  0.292817  1
  O  O49  1  0.223498  0.647581  0.297594  1
