# generated using pymatgen
data_Zn(CoO2)2
_symmetry_space_group_name_H-M   'P 1'
_cell_length_a   5.95566646
_cell_length_b   5.95045856
_cell_length_c   18.00997170
_cell_angle_alpha   60.07426072
_cell_angle_beta   60.04183483
_cell_angle_gamma   60.32927629
_symmetry_Int_Tables_number   1
_chemical_formula_structural   Zn(CoO2)2
_chemical_formula_sum   'Zn6 Co12 O24'
_cell_volume   452.82486094
_cell_formula_units_Z   6
loop_
 _symmetry_equiv_pos_site_id
 _symmetry_equiv_pos_as_xyz
  1  'x, y, z'
loop_
 _atom_site_type_symbol
 _atom_site_label
 _atom_site_symmetry_multiplicity
 _atom_site_fract_x
 _atom_site_fract_y
 _atom_site_fract_z
 _atom_site_occupancy
  Zn  Zn0  1  0.123549  0.123447  0.043301  1
  Zn  Zn1  1  0.122891  0.122588  0.377082  1
  Zn  Zn2  1  0.498789  0.499067  0.334113  1
  Zn  Zn3  1  0.124397  0.123539  0.709164  1
  Zn  Zn4  1  0.500579  0.499433  0.000075  1
  Zn  Zn5  1  0.875608  0.875132  0.624702  1
  Co  Co6  1  0.499322  0.499337  0.166718  1
  Co  Co7  1  0.499189  0.000993  0.166795  1
  Co  Co8  1  0.499334  0.499000  0.500301  1
  Co  Co9  1  0.001127  0.499063  0.166788  1
  Co  Co10  1  0.497886  0.003340  0.499500  1
  Co  Co11  1  0.502336  0.503737  0.664283  1
  Co  Co12  1  0.876797  0.876530  0.289592  1
  Co  Co13  1  0.500896  0.500592  0.832921  1
  Co  Co14  1  0.002617  0.497499  0.499834  1
  Co  Co15  1  0.501796  0.000474  0.832770  1
  Co  Co16  1  0.001459  0.502441  0.832286  1
  Co  Co17  1  0.875495  0.877700  0.956646  1
  O  O18  1  0.252235  0.252542  0.092702  1
  O  O19  1  0.257471  0.257203  0.242276  1
  O  O20  1  0.253179  0.717334  0.092411  1
  O  O21  1  0.717512  0.253271  0.092404  1
  O  O22  1  0.247979  0.248105  0.428101  1
  O  O23  1  0.278519  0.747314  0.241792  1
  O  O24  1  0.258389  0.260486  0.575131  1
  O  O25  1  0.747623  0.278547  0.241716  1
  O  O26  1  0.742583  0.742831  0.090910  1
  O  O27  1  0.248911  0.717474  0.427686  1
  O  O28  1  0.717756  0.249207  0.427479  1
  O  O29  1  0.749247  0.748590  0.241101  1
  O  O30  1  0.267443  0.266693  0.750982  1
  O  O31  1  0.282155  0.740052  0.578874  1
  O  O32  1  0.739939  0.281460  0.578696  1
  O  O33  1  0.255860  0.262744  0.907047  1
  O  O34  1  0.741803  0.740565  0.424709  1
  O  O35  1  0.262237  0.716323  0.753725  1
  O  O36  1  0.714494  0.265253  0.753724  1
  O  O37  1  0.735080  0.736759  0.581386  1
  O  O38  1  0.281666  0.746655  0.907012  1
  O  O39  1  0.750959  0.280350  0.906589  1
  O  O40  1  0.744259  0.737796  0.759399  1
  O  O41  1  0.748638  0.748534  0.907279  1
