# generated using pymatgen
data_MoSeS
_symmetry_space_group_name_H-M   'P 1'
_cell_length_a   3.25625297
_cell_length_b   3.25629044
_cell_length_c   36.45187038
_cell_angle_alpha   89.99941454
_cell_angle_beta   90.00000000
_cell_angle_gamma   119.99961943
_symmetry_Int_Tables_number   1
_chemical_formula_structural   MoSeS
_chemical_formula_sum   'Mo4 Se4 S4'
_cell_volume   334.72903521
_cell_formula_units_Z   4
loop_
 _symmetry_equiv_pos_site_id
 _symmetry_equiv_pos_as_xyz
  1  'x, y, z'
loop_
 _atom_site_type_symbol
 _atom_site_label
 _atom_site_symmetry_multiplicity
 _atom_site_fract_x
 _atom_site_fract_y
 _atom_site_fract_z
 _atom_site_occupancy
  Mo  Mo0  1  0.333309  0.666618  0.093933  1
  Mo  Mo1  1  0.333308  0.666617  0.469611  1
  Mo  Mo2  1  0.666700  0.333400  0.281797  1
  Mo  Mo3  1  0.666691  0.333382  0.657561  1
  Se  Se4  1  0.333351  0.666704  0.704135  1
  Se  Se5  1  0.666652  0.333303  0.423095  1
  Se  Se6  1  0.666637  0.333272  0.516191  1
  Se  Se7  1  0.333349  0.666698  0.611007  1
  S  S8  1  0.333360  0.666721  0.324136  1
  S  S9  1  0.666645  0.333289  0.051547  1
  S  S10  1  0.666637  0.333273  0.136293  1
  S  S11  1  0.333362  0.666724  0.239440  1
