# generated using pymatgen
data_Zn(SnO2)2
_symmetry_space_group_name_H-M   'P 1'
_cell_length_a   6.60272671
_cell_length_b   6.60272214
_cell_length_c   19.68298552
_cell_angle_alpha   59.85440687
_cell_angle_beta   59.85411654
_cell_angle_gamma   60.05581613
_symmetry_Int_Tables_number   1
_chemical_formula_structural   Zn(SnO2)2
_chemical_formula_sum   'Zn6 Sn12 O24'
_cell_volume   605.68130758
_cell_formula_units_Z   6
loop_
 _symmetry_equiv_pos_site_id
 _symmetry_equiv_pos_as_xyz
  1  'x, y, z'
loop_
 _atom_site_type_symbol
 _atom_site_label
 _atom_site_symmetry_multiplicity
 _atom_site_fract_x
 _atom_site_fract_y
 _atom_site_fract_z
 _atom_site_occupancy
  Zn  Zn0  1  0.122339  0.122334  0.044122  1
  Zn  Zn1  1  0.117808  0.117797  0.381890  1
  Zn  Zn2  1  0.500945  0.500957  0.332318  1
  Zn  Zn3  1  0.118456  0.118450  0.714032  1
  Zn  Zn4  1  0.499881  0.499887  0.000319  1
  Zn  Zn5  1  0.883860  0.883857  0.617067  1
  Sn  Sn6  1  0.499057  0.499068  0.165905  1
  Sn  Sn7  1  0.498770  0.003927  0.165922  1
  Sn  Sn8  1  0.495448  0.495442  0.500144  1
  Sn  Sn9  1  0.003918  0.498775  0.165924  1
  Sn  Sn10  1  0.495704  0.009343  0.500022  1
  Sn  Sn11  1  0.502262  0.502260  0.665013  1
  Sn  Sn12  1  0.876260  0.876271  0.290212  1
  Sn  Sn13  1  0.502484  0.502482  0.832233  1
  Sn  Sn14  1  0.009348  0.495697  0.500023  1
  Sn  Sn15  1  0.502683  0.997479  0.832664  1
  Sn  Sn16  1  0.997481  0.502681  0.832664  1
  Sn  Sn17  1  0.883576  0.883577  0.950515  1
  O  O18  1  0.255999  0.255991  0.088207  1
  O  O19  1  0.256357  0.256346  0.244471  1
  O  O20  1  0.257204  0.721867  0.088698  1
  O  O21  1  0.721859  0.257202  0.088700  1
  O  O22  1  0.261897  0.261887  0.419178  1
  O  O23  1  0.307932  0.734667  0.240189  1
  O  O24  1  0.250683  0.250665  0.581896  1
  O  O25  1  0.734643  0.307946  0.240192  1
  O  O26  1  0.732424  0.732436  0.100557  1
  O  O27  1  0.260286  0.720583  0.418664  1
  O  O28  1  0.720587  0.260276  0.418666  1
  O  O29  1  0.735426  0.735449  0.240266  1
  O  O30  1  0.229704  0.229700  0.767826  1
  O  O31  1  0.264605  0.767608  0.568141  1
  O  O32  1  0.767611  0.264598  0.568142  1
  O  O33  1  0.255321  0.255324  0.908697  1
  O  O34  1  0.724045  0.724038  0.443216  1
  O  O35  1  0.224920  0.739438  0.767072  1
  O  O36  1  0.739440  0.224920  0.767072  1
  O  O37  1  0.765447  0.765450  0.568483  1
  O  O38  1  0.315442  0.730948  0.909046  1
  O  O39  1  0.730948  0.315444  0.909045  1
  O  O40  1  0.747776  0.747770  0.753784  1
  O  O41  1  0.729163  0.729161  0.908803  1
