# generated using pymatgen
data_CeHgAu2
_symmetry_space_group_name_H-M   'P 1'
_cell_length_a   5.13196386
_cell_length_b   5.19650024
_cell_length_c   5.12551029
_cell_angle_alpha   60.32978245
_cell_angle_beta   59.80788325
_cell_angle_gamma   60.25028631
_symmetry_Int_Tables_number   1
_chemical_formula_structural   CeHgAu2
_chemical_formula_sum   'Ce1 Hg1 Au2'
_cell_volume   96.93180517
_cell_formula_units_Z   1
loop_
 _symmetry_equiv_pos_site_id
 _symmetry_equiv_pos_as_xyz
  1  'x, y, z'
loop_
 _atom_site_type_symbol
 _atom_site_label
 _atom_site_symmetry_multiplicity
 _atom_site_fract_x
 _atom_site_fract_y
 _atom_site_fract_z
 _atom_site_occupancy
  Ce  Ce0  1  0.249999  0.250000  0.250000  1
  Hg  Hg1  1  0.750001  0.750002  0.750000  1
  Au  Au2  1  0.499886  0.500035  0.500114  1
  Au  Au3  1  0.000113  -0.000037  0.999885  1
