# generated using pymatgen
data_Te6Mo2W
_symmetry_space_group_name_H-M   'P 1'
_cell_length_a   3.55249934
_cell_length_b   3.55196699
_cell_length_c   32.57431002
_cell_angle_alpha   90.00000197
_cell_angle_beta   90.00000000
_cell_angle_gamma   120.00495790
_symmetry_Int_Tables_number   1
_chemical_formula_structural   Te6Mo2W
_chemical_formula_sum   'Te6 Mo2 W1'
_cell_volume   355.94843303
_cell_formula_units_Z   1
loop_
 _symmetry_equiv_pos_site_id
 _symmetry_equiv_pos_as_xyz
  1  'x, y, z'
loop_
 _atom_site_type_symbol
 _atom_site_label
 _atom_site_symmetry_multiplicity
 _atom_site_fract_x
 _atom_site_fract_y
 _atom_site_fract_z
 _atom_site_occupancy
  Te  Te0  1  0.333343  0.666687  0.402678  1
  Te  Te1  1  0.666659  0.333317  0.059971  1
  Te  Te2  1  0.666659  0.333316  0.522542  1
  Te  Te3  1  0.666659  0.333317  0.171364  1
  Te  Te4  1  0.666659  0.333316  0.634059  1
  Te  Te5  1  0.333339  0.666679  0.291286  1
  Mo  Mo6  1  0.333285  0.666570  0.115648  1
  Mo  Mo7  1  0.666715  0.333430  0.346979  1
  W  W8  1  0.333284  0.666569  0.578314  1
