# generated using pymatgen
data_SnPS3
_symmetry_space_group_name_H-M   'P 1'
_cell_length_a   6.65579758
_cell_length_b   7.68465435
_cell_length_c   9.84142791
_cell_angle_alpha   90.00000000
_cell_angle_beta   90.36372697
_cell_angle_gamma   90.00000000
_symmetry_Int_Tables_number   1
_chemical_formula_structural   SnPS3
_chemical_formula_sum   'Sn4 P4 S12'
_cell_volume   503.35432923
_cell_formula_units_Z   4
loop_
 _symmetry_equiv_pos_site_id
 _symmetry_equiv_pos_as_xyz
  1  'x, y, z'
loop_
 _atom_site_type_symbol
 _atom_site_label
 _atom_site_symmetry_multiplicity
 _atom_site_fract_x
 _atom_site_fract_y
 _atom_site_fract_z
 _atom_site_occupancy
  P  P0  1  0.813120  0.649743  0.687055  1
  P  P1  1  0.313120  0.350257  0.187055  1
  P  P2  1  0.691054  0.865113  0.818487  1
  P  P3  1  0.191054  0.134887  0.318487  1
  S  S4  1  0.568249  0.426685  0.289912  1
  S  S5  1  0.068249  0.573315  0.789912  1
  S  S6  1  0.108560  0.546556  0.203073  1
  S  S7  1  0.608560  0.453444  0.703073  1
  S  S8  1  0.150560  0.248290  0.503350  1
  S  S9  1  0.650560  0.751710  0.003350  1
  S  S10  1  0.932096  0.046696  0.231625  1
  S  S11  1  0.432096  0.953304  0.731625  1
  S  S12  1  0.409610  0.948363  0.311184  1
  S  S13  1  0.909610  0.051637  0.811184  1
  S  S14  1  0.353726  0.259948  0.996793  1
  S  S15  1  0.853726  0.740052  0.496793  1
  Sn  Sn16  1  0.703685  0.129558  0.448926  1
  Sn  Sn17  1  0.203685  0.870442  0.948926  1
  Sn  Sn18  1  0.761142  0.399722  0.956295  1
  Sn  Sn19  1  0.261142  0.600278  0.456295  1
