# generated using pymatgen
data_WSeS
_symmetry_space_group_name_H-M   'P 1'
_cell_length_a   3.25472212
_cell_length_b   3.25471568
_cell_length_c   23.02290203
_cell_angle_alpha   89.99942558
_cell_angle_beta   90.00000000
_cell_angle_gamma   120.00006547
_symmetry_Int_Tables_number   1
_chemical_formula_structural   WSeS
_chemical_formula_sum   'W2 Se2 S2'
_cell_volume   211.21141305
_cell_formula_units_Z   2
loop_
 _symmetry_equiv_pos_site_id
 _symmetry_equiv_pos_as_xyz
  1  'x, y, z'
loop_
 _atom_site_type_symbol
 _atom_site_label
 _atom_site_symmetry_multiplicity
 _atom_site_fract_x
 _atom_site_fract_y
 _atom_site_fract_z
 _atom_site_occupancy
  W  W0  1  0.333309  0.666618  0.150434  1
  W  W1  1  0.666688  0.333375  0.451445  1
  Se  Se2  1  0.333361  0.666722  0.525583  1
  Se  Se3  1  0.333351  0.666703  0.377289  1
  S  S4  1  0.666646  0.333291  0.083135  1
  S  S5  1  0.666645  0.333290  0.217718  1
