# generated using pymatgen
data_W3(SeS2)2
_symmetry_space_group_name_H-M   'P 1'
_cell_length_a   3.23150805
_cell_length_b   3.23147163
_cell_length_c   29.70562886
_cell_angle_alpha   89.99991906
_cell_angle_beta   90.00000000
_cell_angle_gamma   120.00037290
_symmetry_Int_Tables_number   1
_chemical_formula_structural   W3(SeS2)2
_chemical_formula_sum   'W3 Se2 S4'
_cell_volume   268.64164645
_cell_formula_units_Z   1
loop_
 _symmetry_equiv_pos_site_id
 _symmetry_equiv_pos_as_xyz
  1  'x, y, z'
loop_
 _atom_site_type_symbol
 _atom_site_label
 _atom_site_symmetry_multiplicity
 _atom_site_fract_x
 _atom_site_fract_y
 _atom_site_fract_z
 _atom_site_occupancy
  W  W0  1  0.333311  0.666622  0.115648  1
  W  W1  1  0.333311  0.666623  0.578330  1
  W  W2  1  0.666686  0.333373  0.346976  1
  Se  Se3  1  0.666651  0.333301  0.520489  1
  Se  Se4  1  0.666646  0.333291  0.636153  1
  S  S5  1  0.333354  0.666709  0.399456  1
  S  S6  1  0.666644  0.333287  0.063148  1
  S  S7  1  0.666644  0.333288  0.168147  1
  S  S8  1  0.333353  0.666707  0.294493  1
