# generated using pymatgen
data_Cr3(W10C3)2
_symmetry_space_group_name_H-M   'P 1'
_cell_length_a   8.20219030
_cell_length_b   8.20219030
_cell_length_c   8.20219030
_cell_angle_alpha   60.00000000
_cell_angle_beta   60.00000000
_cell_angle_gamma   60.00000000
_symmetry_Int_Tables_number   1
_chemical_formula_structural   Cr3(W10C3)2
_chemical_formula_sum   'Cr3 W20 C6'
_cell_volume   390.18855393
_cell_formula_units_Z   1
loop_
 _symmetry_equiv_pos_site_id
 _symmetry_equiv_pos_as_xyz
  1  'x, y, z'
loop_
 _atom_site_type_symbol
 _atom_site_label
 _atom_site_symmetry_multiplicity
 _atom_site_fract_x
 _atom_site_fract_y
 _atom_site_fract_z
 _atom_site_occupancy
  Cr  Cr0  1  -0.000000  -0.000000  0.000000  1
  Cr  Cr1  1  0.250000  0.250000  0.250000  1
  Cr  Cr2  1  0.750000  0.750000  0.750000  1
  W  W3  1  0.664757  -0.000000  0.000000  1
  W  W4  1  0.664757  -0.000000  0.335243  1
  W  W5  1  0.664757  0.335243  -0.000000  1
  W  W6  1  0.000000  0.664757  0.335243  1
  W  W7  1  -0.000000  0.664757  0.000000  1
  W  W8  1  0.335243  0.664757  0.000000  1
  W  W9  1  -0.000000  0.335243  0.664757  1
  W  W10  1  0.335243  0.000000  0.664757  1
  W  W11  1  0.000000  -0.000000  0.664757  1
  W  W12  1  0.335243  0.000000  -0.000000  1
  W  W13  1  0.000000  0.335243  -0.000000  1
  W  W14  1  -0.000000  0.000000  0.335243  1
  W  W15  1  0.857671  0.380776  0.380776  1
  W  W16  1  0.380776  0.857671  0.380776  1
  W  W17  1  0.380776  0.380776  0.857671  1
  W  W18  1  0.380776  0.380776  0.380776  1
  W  W19  1  0.142329  0.619224  0.619224  1
  W  W20  1  0.619224  0.142329  0.619224  1
  W  W21  1  0.619224  0.619224  0.142329  1
  W  W22  1  0.619224  0.619224  0.619224  1
  C  C23  1  0.722074  0.277926  0.277926  1
  C  C24  1  0.722074  0.277926  0.722074  1
  C  C25  1  0.722074  0.722074  0.277926  1
  C  C26  1  0.277926  0.722074  0.722074  1
  C  C27  1  0.277926  0.722074  0.277926  1
  C  C28  1  0.277926  0.277926  0.722074  1
