# generated using pymatgen
data_Sm3Si11Pt23
_symmetry_space_group_name_H-M   'P 1'
_cell_length_a   12.04128721
_cell_length_b   12.04128721
_cell_length_c   12.04128721
_cell_angle_alpha   60.00000000
_cell_angle_beta   60.00000000
_cell_angle_gamma   60.00000000
_symmetry_Int_Tables_number   1
_chemical_formula_structural   Sm3Si11Pt23
_chemical_formula_sum   'Sm6 Si22 Pt46'
_cell_volume   1234.53596975
_cell_formula_units_Z   2
loop_
 _symmetry_equiv_pos_site_id
 _symmetry_equiv_pos_as_xyz
  1  'x, y, z'
loop_
 _atom_site_type_symbol
 _atom_site_label
 _atom_site_symmetry_multiplicity
 _atom_site_fract_x
 _atom_site_fract_y
 _atom_site_fract_z
 _atom_site_occupancy
  Sm  Sm0  1  0.500000  -0.000000  -0.000000  1
  Sm  Sm1  1  0.500000  -0.000000  0.500000  1
  Sm  Sm2  1  0.500000  0.500000  -0.000000  1
  Sm  Sm3  1  0.000000  0.500000  0.500000  1
  Sm  Sm4  1  0.000000  0.500000  -0.000000  1
  Sm  Sm5  1  0.000000  -0.000000  0.500000  1
  Si  Si6  1  0.828374  0.171626  0.171626  1
  Si  Si7  1  0.828374  0.171626  0.828374  1
  Si  Si8  1  0.828374  0.828374  0.171626  1
  Si  Si9  1  0.171626  0.828374  0.828374  1
  Si  Si10  1  0.171626  0.828374  0.171626  1
  Si  Si11  1  0.171626  0.171626  0.828374  1
  Si  Si12  1  0.504484  0.165172  0.165172  1
  Si  Si13  1  0.165172  0.504484  0.165172  1
  Si  Si14  1  0.165172  0.165172  0.504484  1
  Si  Si15  1  0.165172  0.165172  0.165172  1
  Si  Si16  1  0.495516  0.834828  0.834828  1
  Si  Si17  1  0.834828  0.495516  0.834828  1
  Si  Si18  1  0.834828  0.834828  0.495516  1
  Si  Si19  1  0.834828  0.834828  0.834828  1
  Si  Si20  1  0.819099  0.393634  0.393634  1
  Si  Si21  1  0.393634  0.819099  0.393634  1
  Si  Si22  1  0.393634  0.393634  0.819099  1
  Si  Si23  1  0.393634  0.393634  0.393634  1
  Si  Si24  1  0.180901  0.606366  0.606366  1
  Si  Si25  1  0.606366  0.180901  0.606366  1
  Si  Si26  1  0.606366  0.606366  0.180901  1
  Si  Si27  1  0.606366  0.606366  0.606366  1
  Pt  Pt28  1  0.751818  0.082727  0.082727  1
  Pt  Pt29  1  0.082727  0.751818  0.082727  1
  Pt  Pt30  1  0.082727  0.082727  0.751818  1
  Pt  Pt31  1  0.082727  0.082727  0.082727  1
  Pt  Pt32  1  0.248182  0.917273  0.917273  1
  Pt  Pt33  1  0.917273  0.248182  0.917273  1
  Pt  Pt34  1  0.917273  0.917273  0.248182  1
  Pt  Pt35  1  0.917273  0.917273  0.917273  1
  Pt  Pt36  1  0.075494  0.308169  0.308169  1
  Pt  Pt37  1  0.308169  0.075494  0.308169  1
  Pt  Pt38  1  0.308169  0.308169  0.075494  1
  Pt  Pt39  1  0.308169  0.308169  0.308169  1
  Pt  Pt40  1  0.924506  0.691831  0.691831  1
  Pt  Pt41  1  0.691831  0.924506  0.691831  1
  Pt  Pt42  1  0.691831  0.691831  0.924506  1
  Pt  Pt43  1  0.691831  0.691831  0.691831  1
  Pt  Pt44  1  0.625483  0.374517  0.374517  1
  Pt  Pt45  1  0.625483  0.374517  0.625483  1
  Pt  Pt46  1  0.625483  0.625483  0.374517  1
  Pt  Pt47  1  0.374517  0.625483  0.625483  1
  Pt  Pt48  1  0.374517  0.625483  0.374517  1
  Pt  Pt49  1  0.374517  0.374517  0.625483  1
  Pt  Pt50  1  0.578624  0.917261  0.252058  1
  Pt  Pt51  1  0.578624  0.252058  0.252058  1
  Pt  Pt52  1  0.578624  0.252058  0.917261  1
  Pt  Pt53  1  0.917261  0.578624  0.252058  1
  Pt  Pt54  1  0.252058  0.578624  0.917261  1
  Pt  Pt55  1  0.252058  0.578624  0.252058  1
  Pt  Pt56  1  0.252058  0.252058  0.578624  1
  Pt  Pt57  1  0.252058  0.917261  0.578624  1
  Pt  Pt58  1  0.917261  0.252058  0.578624  1
  Pt  Pt59  1  0.252058  0.252058  0.917261  1
  Pt  Pt60  1  0.917261  0.252058  0.252058  1
  Pt  Pt61  1  0.252058  0.917261  0.252058  1
  Pt  Pt62  1  0.421376  0.082739  0.747942  1
  Pt  Pt63  1  0.421376  0.747942  0.747942  1
  Pt  Pt64  1  0.421376  0.747942  0.082739  1
  Pt  Pt65  1  0.082739  0.421376  0.747942  1
  Pt  Pt66  1  0.747942  0.421376  0.082739  1
  Pt  Pt67  1  0.747942  0.421376  0.747942  1
  Pt  Pt68  1  0.747942  0.747942  0.421376  1
  Pt  Pt69  1  0.747942  0.082739  0.421376  1
  Pt  Pt70  1  0.082739  0.747942  0.421376  1
  Pt  Pt71  1  0.747942  0.747942  0.082739  1
  Pt  Pt72  1  0.082739  0.747942  0.747942  1
  Pt  Pt73  1  0.747942  0.082739  0.747942  1
