# generated using pymatgen
data_CsTlF3
_symmetry_space_group_name_H-M   'P 1'
_cell_length_a   6.90095455
_cell_length_b   6.90095473
_cell_length_c   6.90095473
_cell_angle_alpha   59.99999929
_cell_angle_beta   59.99999906
_cell_angle_gamma   59.99999904
_symmetry_Int_Tables_number   1
_chemical_formula_structural   CsTlF3
_chemical_formula_sum   'Cs2 Tl2 F6'
_cell_volume   232.38736821
_cell_formula_units_Z   2
loop_
 _symmetry_equiv_pos_site_id
 _symmetry_equiv_pos_as_xyz
  1  'x, y, z'
loop_
 _atom_site_type_symbol
 _atom_site_label
 _atom_site_symmetry_multiplicity
 _atom_site_fract_x
 _atom_site_fract_y
 _atom_site_fract_z
 _atom_site_occupancy
  Cs  Cs0  1  0.250000  0.250000  0.250000  1
  Cs  Cs1  1  0.750000  0.750000  0.750000  1
  Tl  Tl2  1  0.500000  0.500000  0.500000  1
  Tl  Tl3  1  0.000000  -0.000000  0.000000  1
  F  F4  1  0.226660  0.773340  0.226660  1
  F  F5  1  0.773340  0.773340  0.226660  1
  F  F6  1  0.773340  0.226660  0.773340  1
  F  F7  1  0.773340  0.226660  0.226660  1
  F  F8  1  0.226660  0.773340  0.773340  1
  F  F9  1  0.226660  0.226660  0.773340  1
