# generated using pymatgen
data_Mo3WSe8
_symmetry_space_group_name_H-M   'P 1'
_cell_length_a   3.32358819
_cell_length_b   3.32350415
_cell_length_c   37.82531495
_cell_angle_alpha   90.00027876
_cell_angle_beta   90.00000000
_cell_angle_gamma   120.00083658
_symmetry_Int_Tables_number   1
_chemical_formula_structural   Mo3WSe8
_chemical_formula_sum   'Mo3 W1 Se8'
_cell_volume   361.83698492
_cell_formula_units_Z   1
loop_
 _symmetry_equiv_pos_site_id
 _symmetry_equiv_pos_as_xyz
  1  'x, y, z'
loop_
 _atom_site_type_symbol
 _atom_site_label
 _atom_site_symmetry_multiplicity
 _atom_site_fract_x
 _atom_site_fract_y
 _atom_site_fract_z
 _atom_site_occupancy
  Mo  Mo0  1  0.333308  0.666616  0.093921  1
  Mo  Mo1  1  0.666689  0.333378  0.281800  1
  Mo  Mo2  1  0.666692  0.333384  0.657541  1
  W  W3  1  0.333313  0.666626  0.469660  1
  Se  Se4  1  0.333360  0.666721  0.326113  1
  Se  Se5  1  0.333358  0.666716  0.701841  1
  Se  Se6  1  0.666648  0.333294  0.049623  1
  Se  Se7  1  0.666648  0.333296  0.425138  1
  Se  Se8  1  0.666637  0.333272  0.138230  1
  Se  Se9  1  0.666649  0.333297  0.514177  1
  Se  Se10  1  0.333344  0.666690  0.237482  1
  Se  Se11  1  0.333354  0.666710  0.613223  1
