# generated using pymatgen
data_ScZn2Cu
_symmetry_space_group_name_H-M   'P 1'
_cell_length_a   4.43174973
_cell_length_b   4.43151385
_cell_length_c   4.43190019
_cell_angle_alpha   60.00332122
_cell_angle_beta   60.00608765
_cell_angle_gamma   60.00850585
_symmetry_Int_Tables_number   1
_chemical_formula_structural   ScZn2Cu
_chemical_formula_sum   'Sc1 Zn2 Cu1'
_cell_volume   61.55468346
_cell_formula_units_Z   1
loop_
 _symmetry_equiv_pos_site_id
 _symmetry_equiv_pos_as_xyz
  1  'x, y, z'
loop_
 _atom_site_type_symbol
 _atom_site_label
 _atom_site_symmetry_multiplicity
 _atom_site_fract_x
 _atom_site_fract_y
 _atom_site_fract_z
 _atom_site_occupancy
  Sc  Sc0  1  0.749994  0.750005  0.750003  1
  Zn  Zn1  1  0.000015  0.000008  0.999997  1
  Zn  Zn2  1  0.499977  0.499989  0.500018  1
  Cu  Cu3  1  0.250016  0.249999  0.249984  1
