# generated using pymatgen
data_Mo3WS8
_symmetry_space_group_name_H-M   'P 1'
_cell_length_a   3.18731341
_cell_length_b   3.18718755
_cell_length_c   35.84580249
_cell_angle_alpha   89.99991935
_cell_angle_beta   90.00000000
_cell_angle_gamma   120.00130624
_symmetry_Int_Tables_number   1
_chemical_formula_structural   Mo3WS8
_chemical_formula_sum   'Mo3 W1 S8'
_cell_volume   315.35201646
_cell_formula_units_Z   1
loop_
 _symmetry_equiv_pos_site_id
 _symmetry_equiv_pos_as_xyz
  1  'x, y, z'
loop_
 _atom_site_type_symbol
 _atom_site_label
 _atom_site_symmetry_multiplicity
 _atom_site_fract_x
 _atom_site_fract_y
 _atom_site_fract_z
 _atom_site_occupancy
  Mo  Mo0  1  0.333316  0.666632  0.093928  1
  Mo  Mo1  1  0.666686  0.333371  0.281801  1
  Mo  Mo2  1  0.666683  0.333367  0.657533  1
  W  W3  1  0.333317  0.666634  0.469664  1
  S  S4  1  0.333357  0.666715  0.325500  1
  S  S5  1  0.333357  0.666714  0.701257  1
  S  S6  1  0.666643  0.333286  0.050203  1
  S  S7  1  0.666642  0.333283  0.425772  1
  S  S8  1  0.666644  0.333286  0.137642  1
  S  S9  1  0.666641  0.333282  0.513535  1
  S  S10  1  0.333357  0.666715  0.238087  1
  S  S11  1  0.333357  0.666715  0.613828  1
