# generated using pymatgen
data_Mg5MnSb4
_symmetry_space_group_name_H-M   'P 1'
_cell_length_a   4.56886016
_cell_length_b   4.56886038
_cell_length_c   14.50391346
_cell_angle_alpha   89.97756510
_cell_angle_beta   89.97756512
_cell_angle_gamma   59.97697349
_symmetry_Int_Tables_number   1
_chemical_formula_structural   Mg5MnSb4
_chemical_formula_sum   'Mg5 Mn1 Sb4'
_cell_volume   262.13844769
_cell_formula_units_Z   1
loop_
 _symmetry_equiv_pos_site_id
 _symmetry_equiv_pos_as_xyz
  1  'x, y, z'
loop_
 _atom_site_type_symbol
 _atom_site_label
 _atom_site_symmetry_multiplicity
 _atom_site_fract_x
 _atom_site_fract_y
 _atom_site_fract_z
 _atom_site_occupancy
  Mg  Mg0  1  0.999985  0.999985  0.000183  1
  Mg  Mg1  1  0.000074  0.000074  0.499273  1
  Mg  Mg2  1  0.666662  0.666662  0.815678  1
  Mg  Mg3  1  0.333323  0.333323  0.186662  1
  Mg  Mg4  1  0.333326  0.333326  0.684338  1
  Mn  Mn5  1  0.666687  0.666687  0.313880  1
  Sb  Sb6  1  0.666651  0.666651  0.115587  1
  Sb  Sb7  1  0.666684  0.666684  0.612115  1
  Sb  Sb8  1  0.333275  0.333275  0.384766  1
  Sb  Sb9  1  0.333333  0.333333  0.887517  1
