# generated using pymatgen
data_TeMoS
_symmetry_space_group_name_H-M   'P 1'
_cell_length_a   3.36168479
_cell_length_b   3.36194529
_cell_length_c   39.73002716
_cell_angle_alpha   90.00019212
_cell_angle_beta   90.00000000
_cell_angle_gamma   119.99743695
_symmetry_Int_Tables_number   1
_chemical_formula_structural   TeMoS
_chemical_formula_sum   'Te4 Mo4 S4'
_cell_volume   388.87349241
_cell_formula_units_Z   4
loop_
 _symmetry_equiv_pos_site_id
 _symmetry_equiv_pos_as_xyz
  1  'x, y, z'
loop_
 _atom_site_type_symbol
 _atom_site_label
 _atom_site_symmetry_multiplicity
 _atom_site_fract_x
 _atom_site_fract_y
 _atom_site_fract_z
 _atom_site_occupancy
  Te  Te0  1  0.333334  0.666668  0.706817  1
  Te  Te1  1  0.666695  0.333388  0.420352  1
  Te  Te2  1  0.666634  0.333266  0.515446  1
  Te  Te3  1  0.333287  0.666576  0.611864  1
  Mo  Mo4  1  0.333399  0.666799  0.093966  1
  Mo  Mo5  1  0.333360  0.666721  0.467923  1
  Mo  Mo6  1  0.666702  0.333404  0.281695  1
  Mo  Mo7  1  0.666621  0.333242  0.659377  1
  S  S8  1  0.333361  0.666724  0.319794  1
  S  S9  1  0.666621  0.333241  0.055847  1
  S  S10  1  0.666651  0.333302  0.132080  1
  S  S11  1  0.333334  0.666669  0.243589  1
