# generated using pymatgen
data_Tl2PO4
_symmetry_space_group_name_H-M   'P 1'
_cell_length_a   5.50472317
_cell_length_b   6.39275870
_cell_length_c   17.19947102
_cell_angle_alpha   90.00000000
_cell_angle_beta   97.26641697
_cell_angle_gamma   90.00000000
_symmetry_Int_Tables_number   1
_chemical_formula_structural   Tl2PO4
_chemical_formula_sum   'Tl8 P4 O16'
_cell_volume   600.39473543
_cell_formula_units_Z   4
loop_
 _symmetry_equiv_pos_site_id
 _symmetry_equiv_pos_as_xyz
  1  'x, y, z'
loop_
 _atom_site_type_symbol
 _atom_site_label
 _atom_site_symmetry_multiplicity
 _atom_site_fract_x
 _atom_site_fract_y
 _atom_site_fract_z
 _atom_site_occupancy
  Tl  Tl0  1  0.724591  0.074241  0.890180  1
  Tl  Tl1  1  0.224591  0.925759  0.390180  1
  Tl  Tl2  1  0.360807  0.580337  0.973877  1
  Tl  Tl3  1  0.860807  0.419663  0.473877  1
  Tl  Tl4  1  0.863632  0.599744  0.241205  1
  Tl  Tl5  1  0.363632  0.400256  0.741205  1
  Tl  Tl6  1  0.920869  0.848221  0.661031  1
  Tl  Tl7  1  0.420869  0.151779  0.161031  1
  P  P8  1  0.902408  0.589616  0.838341  1
  P  P9  1  0.402407  0.410384  0.338341  1
  P  P10  1  0.430013  0.910921  0.603934  1
  P  P11  1  0.930013  0.089079  0.103934  1
  O  O12  1  0.051062  0.389558  0.864812  1
  O  O13  1  0.551062  0.610442  0.364812  1
  O  O14  1  0.632858  0.577003  0.855564  1
  O  O15  1  0.132858  0.422997  0.355564  1
  O  O16  1  0.894186  0.594638  0.744766  1
  O  O17  1  0.394186  0.405362  0.244766  1
  O  O18  1  0.034629  0.786250  0.875710  1
  O  O19  1  0.534629  0.213750  0.375711  1
  O  O20  1  0.307252  0.822939  0.677556  1
  O  O21  1  0.807252  0.177061  0.177556  1
  O  O22  1  0.224844  0.991667  0.544078  1
  O  O23  1  0.724844  0.008333  0.044078  1
  O  O24  1  0.594607  0.732343  0.576314  1
  O  O25  1  0.094607  0.267657  0.076314  1
  O  O26  1  0.624073  0.082215  0.639902  1
  O  O27  1  0.124073  0.917785  0.139902  1
