# generated using pymatgen
data_MoW3S8
_symmetry_space_group_name_H-M   'P 1'
_cell_length_a   3.19106105
_cell_length_b   3.19107083
_cell_length_c   35.84507177
_cell_angle_alpha   90.00009245
_cell_angle_beta   90.00000000
_cell_angle_gamma   119.99989852
_symmetry_Int_Tables_number   1
_chemical_formula_structural   MoW3S8
_chemical_formula_sum   'Mo1 W3 S8'
_cell_volume   316.10552534
_cell_formula_units_Z   1
loop_
 _symmetry_equiv_pos_site_id
 _symmetry_equiv_pos_as_xyz
  1  'x, y, z'
loop_
 _atom_site_type_symbol
 _atom_site_label
 _atom_site_symmetry_multiplicity
 _atom_site_fract_x
 _atom_site_fract_y
 _atom_site_fract_z
 _atom_site_occupancy
  Mo  Mo0  1  0.666692  0.333385  0.281811  1
  W  W1  1  0.333307  0.666614  0.093908  1
  W  W2  1  0.333307  0.666614  0.469664  1
  W  W3  1  0.666692  0.333384  0.657552  1
  S  S4  1  0.333352  0.666706  0.325448  1
  S  S5  1  0.333353  0.666706  0.701412  1
  S  S6  1  0.666648  0.333294  0.050031  1
  S  S7  1  0.666648  0.333294  0.425809  1
  S  S8  1  0.666647  0.333293  0.137789  1
  S  S9  1  0.666647  0.333293  0.513505  1
  S  S10  1  0.333353  0.666707  0.238141  1
  S  S11  1  0.333354  0.666708  0.613679  1
