# generated using pymatgen
data_Mg(BiO2)2
_symmetry_space_group_name_H-M   'P 1'
_cell_length_a   6.86185667
_cell_length_b   6.86188981
_cell_length_c   20.37682327
_cell_angle_alpha   59.66127530
_cell_angle_beta   59.66148949
_cell_angle_gamma   59.99837979
_symmetry_Int_Tables_number   1
_chemical_formula_structural   Mg(BiO2)2
_chemical_formula_sum   'Mg6 Bi12 O24'
_cell_volume   674.93154586
_cell_formula_units_Z   6
loop_
 _symmetry_equiv_pos_site_id
 _symmetry_equiv_pos_as_xyz
  1  'x, y, z'
loop_
 _atom_site_type_symbol
 _atom_site_label
 _atom_site_symmetry_multiplicity
 _atom_site_fract_x
 _atom_site_fract_y
 _atom_site_fract_z
 _atom_site_occupancy
  Mg  Mg0  1  0.123012  0.123018  0.043656  1
  Mg  Mg1  1  0.123606  0.123608  0.376396  1
  Mg  Mg2  1  0.498267  0.498264  0.001751  1
  Mg  Mg3  1  0.127309  0.127320  0.706024  1
  Mg  Mg4  1  0.875332  0.875321  0.291358  1
  Mg  Mg5  1  0.874770  0.874755  0.625254  1
  Bi  Bi6  1  0.011573  0.497681  0.164353  1
  Bi  Bi7  1  0.497700  0.497701  0.164341  1
  Bi  Bi8  1  0.001235  0.501248  0.498714  1
  Bi  Bi9  1  0.497684  0.011572  0.164351  1
  Bi  Bi10  1  0.503699  0.503701  0.329640  1
  Bi  Bi11  1  0.501208  0.501211  0.498731  1
  Bi  Bi12  1  0.996377  0.500437  0.834234  1
  Bi  Bi13  1  0.501249  0.001233  0.498715  1
  Bi  Bi14  1  0.500433  0.996376  0.834235  1
  Bi  Bi15  1  0.499355  0.499359  0.667352  1
  Bi  Bi16  1  0.500392  0.500392  0.834268  1
  Bi  Bi17  1  0.880688  0.880688  0.952630  1
  O  O18  1  0.265085  0.265107  0.078443  1
  O  O19  1  0.250496  0.250493  0.249509  1
  O  O20  1  0.265076  0.734544  0.078435  1
  O  O21  1  0.734518  0.265106  0.078433  1
  O  O22  1  0.246264  0.752131  0.249844  1
  O  O23  1  0.248718  0.248727  0.416896  1
  O  O24  1  0.752137  0.246305  0.249844  1
  O  O25  1  0.749668  0.749656  0.083651  1
  O  O26  1  0.248704  0.751838  0.416899  1
  O  O27  1  0.251735  0.251735  0.581613  1
  O  O28  1  0.752066  0.752041  0.249889  1
  O  O29  1  0.751856  0.248701  0.416904  1
  O  O30  1  0.249283  0.747485  0.585281  1
  O  O31  1  0.243092  0.243114  0.751640  1
  O  O32  1  0.747492  0.249284  0.585281  1
  O  O33  1  0.750788  0.750759  0.415874  1
  O  O34  1  0.246778  0.246768  0.919915  1
  O  O35  1  0.243057  0.758875  0.751658  1
  O  O36  1  0.747428  0.747433  0.585295  1
  O  O37  1  0.758870  0.243049  0.751654  1
  O  O38  1  0.289411  0.722283  0.922016  1
  O  O39  1  0.748989  0.748999  0.751003  1
  O  O40  1  0.722288  0.289393  0.922017  1
  O  O41  1  0.722312  0.722292  0.922004  1
