# generated using pymatgen
data_RbTlI3
_symmetry_space_group_name_H-M   'P 1'
_cell_length_a   8.89621624
_cell_length_b   8.89621678
_cell_length_c   8.89621675
_cell_angle_alpha   59.99999845
_cell_angle_beta   59.99999772
_cell_angle_gamma   59.99999785
_symmetry_Int_Tables_number   1
_chemical_formula_structural   RbTlI3
_chemical_formula_sum   'Rb2 Tl2 I6'
_cell_volume   497.85288252
_cell_formula_units_Z   2
loop_
 _symmetry_equiv_pos_site_id
 _symmetry_equiv_pos_as_xyz
  1  'x, y, z'
loop_
 _atom_site_type_symbol
 _atom_site_label
 _atom_site_symmetry_multiplicity
 _atom_site_fract_x
 _atom_site_fract_y
 _atom_site_fract_z
 _atom_site_occupancy
  Rb  Rb0  1  0.250000  0.250000  0.250000  1
  Rb  Rb1  1  0.750000  0.750000  0.750000  1
  Tl  Tl2  1  0.500000  0.500000  0.500000  1
  Tl  Tl3  1  -0.000000  -0.000000  0.000000  1
  I  I4  1  0.242670  0.757330  0.242670  1
  I  I5  1  0.757330  0.757330  0.242670  1
  I  I6  1  0.757330  0.242670  0.757330  1
  I  I7  1  0.757330  0.242670  0.242670  1
  I  I8  1  0.242670  0.757330  0.757330  1
  I  I9  1  0.242670  0.242670  0.757330  1
