# generated using pymatgen
data_Rb3InI6
_symmetry_space_group_name_H-M   'P 1'
_cell_length_a   9.06289570
_cell_length_b   9.06289626
_cell_length_c   9.06289623
_cell_angle_alpha   59.99999838
_cell_angle_beta   59.99999768
_cell_angle_gamma   59.99999776
_symmetry_Int_Tables_number   1
_chemical_formula_structural   Rb3InI6
_chemical_formula_sum   'Rb3 In1 I6'
_cell_volume   526.36375948
_cell_formula_units_Z   1
loop_
 _symmetry_equiv_pos_site_id
 _symmetry_equiv_pos_as_xyz
  1  'x, y, z'
loop_
 _atom_site_type_symbol
 _atom_site_label
 _atom_site_symmetry_multiplicity
 _atom_site_fract_x
 _atom_site_fract_y
 _atom_site_fract_z
 _atom_site_occupancy
  Rb  Rb0  1  0.250000  0.250000  0.250000  1
  Rb  Rb1  1  0.750000  0.750000  0.750000  1
  Rb  Rb2  1  0.500000  0.500000  0.500000  1
  In  In3  1  -0.000000  -0.000000  -0.000000  1
  I  I4  1  0.229325  0.770675  0.229325  1
  I  I5  1  0.770675  0.770675  0.229325  1
  I  I6  1  0.770675  0.229325  0.770675  1
  I  I7  1  0.770675  0.229325  0.229325  1
  I  I8  1  0.229325  0.770675  0.770675  1
  I  I9  1  0.229325  0.229325  0.770675  1
