# generated using pymatgen
data_Zr3Mn8Si
_symmetry_space_group_name_H-M   'P 1'
_cell_length_a   4.85276843
_cell_length_b   4.85225710
_cell_length_c   8.04993500
_cell_angle_alpha   90.00000000
_cell_angle_beta   89.99547526
_cell_angle_gamma   60.00348549
_symmetry_Int_Tables_number   1
_chemical_formula_structural   Zr3Mn8Si
_chemical_formula_sum   'Zr3 Mn8 Si1'
_cell_volume   164.16161929
_cell_formula_units_Z   1
loop_
 _symmetry_equiv_pos_site_id
 _symmetry_equiv_pos_as_xyz
  1  'x, y, z'
loop_
 _atom_site_type_symbol
 _atom_site_label
 _atom_site_symmetry_multiplicity
 _atom_site_fract_x
 _atom_site_fract_y
 _atom_site_fract_z
 _atom_site_occupancy
  Zr  Zr0  1  0.666628  0.666686  0.443957  1
  Zr  Zr1  1  0.666649  0.666676  0.064825  1
  Zr  Zr2  1  0.333378  0.333311  0.920760  1
  Mn  Mn3  1  0.999913  0.000044  0.503696  1
  Mn  Mn4  1  0.000032  0.999984  0.007144  1
  Mn  Mn5  1  0.829038  0.341978  0.743517  1
  Mn  Mn6  1  0.342101  0.828949  0.743583  1
  Mn  Mn7  1  0.829038  0.828984  0.743517  1
  Mn  Mn8  1  0.174275  0.651300  0.255021  1
  Mn  Mn9  1  0.651337  0.174332  0.255014  1
  Mn  Mn10  1  0.174275  0.174425  0.255021  1
  Si  Si11  1  0.333338  0.333331  0.563945  1
