# generated using pymatgen
data_Ti6Al16Pd7
_symmetry_space_group_name_H-M   'P 1'
_cell_length_a   8.63491426
_cell_length_b   8.63491426
_cell_length_c   8.63491426
_cell_angle_alpha   60.00000000
_cell_angle_beta   60.00000000
_cell_angle_gamma   60.00000000
_symmetry_Int_Tables_number   1
_chemical_formula_structural   Ti6Al16Pd7
_chemical_formula_sum   'Ti6 Al16 Pd7'
_cell_volume   455.25957791
_cell_formula_units_Z   1
loop_
 _symmetry_equiv_pos_site_id
 _symmetry_equiv_pos_as_xyz
  1  'x, y, z'
loop_
 _atom_site_type_symbol
 _atom_site_label
 _atom_site_symmetry_multiplicity
 _atom_site_fract_x
 _atom_site_fract_y
 _atom_site_fract_z
 _atom_site_occupancy
  Ti  Ti0  1  0.672307  0.327693  0.327693  1
  Ti  Ti1  1  0.672307  0.327693  0.672307  1
  Ti  Ti2  1  0.672307  0.672307  0.327693  1
  Ti  Ti3  1  0.327693  0.672307  0.672307  1
  Ti  Ti4  1  0.327693  0.672307  0.327693  1
  Ti  Ti5  1  0.327693  0.327693  0.672307  1
  Al  Al6  1  0.638577  0.120474  0.120474  1
  Al  Al7  1  0.120474  0.638577  0.120474  1
  Al  Al8  1  0.120474  0.120474  0.638577  1
  Al  Al9  1  0.120474  0.120474  0.120474  1
  Al  Al10  1  0.361423  0.879526  0.879526  1
  Al  Al11  1  0.879526  0.361423  0.879526  1
  Al  Al12  1  0.879526  0.879526  0.361423  1
  Al  Al13  1  0.879526  0.879526  0.879526  1
  Al  Al14  1  0.979400  0.340200  0.340200  1
  Al  Al15  1  0.340200  0.979400  0.340200  1
  Al  Al16  1  0.340200  0.340200  0.979400  1
  Al  Al17  1  0.340200  0.340200  0.340200  1
  Al  Al18  1  0.020600  0.659800  0.659800  1
  Al  Al19  1  0.659800  0.020600  0.659800  1
  Al  Al20  1  0.659800  0.659800  0.020600  1
  Al  Al21  1  0.659800  0.659800  0.659800  1
  Pd  Pd22  1  -0.000000  -0.000000  0.000000  1
  Pd  Pd23  1  0.500000  -0.000000  0.000000  1
  Pd  Pd24  1  0.500000  -0.000000  0.500000  1
  Pd  Pd25  1  0.500000  0.500000  0.000000  1
  Pd  Pd26  1  -0.000000  0.500000  0.500000  1
  Pd  Pd27  1  -0.000000  0.500000  0.000000  1
  Pd  Pd28  1  -0.000000  -0.000000  0.500000  1
