# generated using pymatgen
data_Mo2SeS3
_symmetry_space_group_name_H-M   'P 1'
_cell_length_a   3.22056631
_cell_length_b   3.22049011
_cell_length_c   36.37605019
_cell_angle_alpha   90.00014494
_cell_angle_beta   90.00000000
_cell_angle_gamma   120.00078278
_symmetry_Int_Tables_number   1
_chemical_formula_structural   Mo2SeS3
_chemical_formula_sum   'Mo4 Se2 S6'
_cell_volume   326.73598045
_cell_formula_units_Z   2
loop_
 _symmetry_equiv_pos_site_id
 _symmetry_equiv_pos_as_xyz
  1  'x, y, z'
loop_
 _atom_site_type_symbol
 _atom_site_label
 _atom_site_symmetry_multiplicity
 _atom_site_fract_x
 _atom_site_fract_y
 _atom_site_fract_z
 _atom_site_occupancy
  Mo  Mo0  1  0.333311  0.666622  0.093929  1
  Mo  Mo1  1  0.333312  0.666624  0.469661  1
  Mo  Mo2  1  0.666687  0.333373  0.281797  1
  Mo  Mo3  1  0.666688  0.333375  0.657541  1
  Se  Se4  1  0.666647  0.333294  0.422628  1
  Se  Se5  1  0.666643  0.333284  0.516693  1
  S  S6  1  0.333357  0.666716  0.324557  1
  S  S7  1  0.333357  0.666716  0.700327  1
  S  S8  1  0.666642  0.333284  0.051132  1
  S  S9  1  0.666645  0.333290  0.136712  1
  S  S10  1  0.333354  0.666708  0.239020  1
  S  S11  1  0.333356  0.666713  0.614752  1
