# generated using pymatgen
data_Yb4ZrCo33
_symmetry_space_group_name_H-M   'P 1'
_cell_length_a   8.16047167
_cell_length_b   8.30992074
_cell_length_c   8.30992074
_cell_angle_alpha   119.99018134
_cell_angle_beta   89.99561614
_cell_angle_gamma   90.00438386
_symmetry_Int_Tables_number   1
_chemical_formula_structural   Yb4ZrCo33
_chemical_formula_sum   'Yb4 Zr1 Co33'
_cell_volume   488.07056314
_cell_formula_units_Z   1
loop_
 _symmetry_equiv_pos_site_id
 _symmetry_equiv_pos_as_xyz
  1  'x, y, z'
loop_
 _atom_site_type_symbol
 _atom_site_label
 _atom_site_symmetry_multiplicity
 _atom_site_fract_x
 _atom_site_fract_y
 _atom_site_fract_z
 _atom_site_occupancy
  Yb  Yb0  1  0.238239  0.666735  0.333265  1
  Yb  Yb1  1  0.750454  0.333421  0.666579  1
  Yb  Yb2  1  0.751541  0.999848  0.000152  1
  Yb  Yb3  1  0.248060  0.999799  0.000201  1
  Zr  Zr4  1  0.611648  0.666742  0.333258  1
  Co  Co5  1  0.475233  0.838537  0.677071  1
  Co  Co6  1  0.475134  0.838540  0.161460  1
  Co  Co7  1  0.475233  0.322929  0.161463  1
  Co  Co8  1  0.519103  0.166355  0.332845  1
  Co  Co9  1  0.519082  0.166426  0.833574  1
  Co  Co10  1  0.519103  0.667155  0.833645  1
  Co  Co11  1  0.984190  0.167143  0.334430  1
  Co  Co12  1  0.984244  0.167225  0.832775  1
  Co  Co13  1  0.984190  0.665570  0.832857  1
  Co  Co14  1  0.018273  0.833811  0.667669  1
  Co  Co15  1  0.018325  0.833852  0.166148  1
  Co  Co16  1  0.018273  0.332331  0.166189  1
  Co  Co17  1  0.498734  0.494159  0.988143  1
  Co  Co18  1  0.498601  0.494015  0.505985  1
  Co  Co19  1  0.498734  0.011857  0.505841  1
  Co  Co20  1  0.998906  0.499778  0.999331  1
  Co  Co21  1  0.998936  0.499595  0.500405  1
  Co  Co22  1  0.998906  0.000669  0.500222  1
  Co  Co23  1  0.751463  0.672607  0.034971  1
  Co  Co24  1  0.751459  0.362374  0.327464  1
  Co  Co25  1  0.751486  0.964961  0.637442  1
  Co  Co26  1  0.751486  0.362558  0.035039  1
  Co  Co27  1  0.751463  0.965029  0.327393  1
  Co  Co28  1  0.751459  0.672536  0.637626  1
  Co  Co29  1  0.250300  0.328976  0.955916  1
  Co  Co30  1  0.250286  0.626927  0.671047  1
  Co  Co31  1  0.250302  0.044038  0.372928  1
  Co  Co32  1  0.250302  0.627072  0.955962  1
  Co  Co33  1  0.250300  0.044084  0.671024  1
  Co  Co34  1  0.250286  0.328953  0.373073  1
  Co  Co35  1  0.389539  0.333332  0.666668  1
  Co  Co36  1  0.105868  0.333372  0.666628  1
  Co  Co37  1  0.910856  0.666689  0.333311  1
