# generated using pymatgen
data_Sc(TiFe3)2
_symmetry_space_group_name_H-M   'P 1'
_cell_length_a   4.83564041
_cell_length_b   4.83579025
_cell_length_c   23.75831278
_cell_angle_alpha   90.00000000
_cell_angle_beta   89.99949968
_cell_angle_gamma   59.99897490
_symmetry_Int_Tables_number   1
_chemical_formula_structural   Sc(TiFe3)2
_chemical_formula_sum   'Sc4 Ti8 Fe24'
_cell_volume   481.13083882
_cell_formula_units_Z   4
loop_
 _symmetry_equiv_pos_site_id
 _symmetry_equiv_pos_as_xyz
  1  'x, y, z'
loop_
 _atom_site_type_symbol
 _atom_site_label
 _atom_site_symmetry_multiplicity
 _atom_site_fract_x
 _atom_site_fract_y
 _atom_site_fract_z
 _atom_site_occupancy
  Sc  Sc0  1  0.333346  0.333327  0.189353  1
  Sc  Sc1  1  0.333314  0.333343  0.521455  1
  Sc  Sc2  1  0.333333  0.333333  0.853893  1
  Sc  Sc3  1  0.666659  0.666670  0.145057  1
  Ti  Ti4  1  0.666639  0.666681  0.477039  1
  Ti  Ti5  1  0.666638  0.666681  0.810083  1
  Ti  Ti6  1  0.666675  0.666663  0.019320  1
  Ti  Ti7  1  0.666646  0.666677  0.353908  1
  Ti  Ti8  1  0.666670  0.666665  0.686885  1
  Ti  Ti9  1  0.333346  0.333327  0.314563  1
  Ti  Ti10  1  0.333344  0.333328  0.647598  1
  Ti  Ti11  1  0.333348  0.333326  0.979536  1
  Fe  Fe12  1  0.999993  0.000004  0.166555  1
  Fe  Fe13  1  0.000004  -0.000002  0.499972  1
  Fe  Fe14  1  0.000020  0.999990  0.833076  1
  Fe  Fe15  1  0.999994  0.000003  0.999353  1
  Fe  Fe16  1  -0.000023  0.000012  0.334124  1
  Fe  Fe17  1  0.000048  -0.000024  0.666670  1
  Fe  Fe18  1  0.830507  0.339001  0.253151  1
  Fe  Fe19  1  0.829454  0.341033  0.585102  1
  Fe  Fe20  1  0.830278  0.339463  0.917706  1
  Fe  Fe21  1  0.339017  0.830491  0.253143  1
  Fe  Fe22  1  0.340970  0.829515  0.585101  1
  Fe  Fe23  1  0.339486  0.830257  0.917686  1
  Fe  Fe24  1  0.830507  0.830491  0.253151  1
  Fe  Fe25  1  0.829454  0.829513  0.585102  1
  Fe  Fe26  1  0.830278  0.830259  0.917706  1
  Fe  Fe27  1  0.169168  0.661665  0.080622  1
  Fe  Fe28  1  0.169568  0.660879  0.415446  1
  Fe  Fe29  1  0.169374  0.661249  0.748491  1
  Fe  Fe30  1  0.661670  0.169165  0.080647  1
  Fe  Fe31  1  0.660910  0.169545  0.415452  1
  Fe  Fe32  1  0.661256  0.169372  0.748495  1
  Fe  Fe33  1  0.169168  0.169166  0.080622  1
  Fe  Fe34  1  0.169568  0.169553  0.415446  1
  Fe  Fe35  1  0.169374  0.169377  0.748491  1
