# generated using pymatgen
data_Rb4Cu5Cl9
_symmetry_space_group_name_H-M   'P 1'
_cell_length_a   8.65565786
_cell_length_b   14.79577646
_cell_length_c   15.83104835
_cell_angle_alpha   106.20914768
_cell_angle_beta   90.00000000
_cell_angle_gamma   90.00000000
_symmetry_Int_Tables_number   1
_chemical_formula_structural   Rb4Cu5Cl9
_chemical_formula_sum   'Rb16 Cu20 Cl36'
_cell_volume   1946.84528820
_cell_formula_units_Z   4
loop_
 _symmetry_equiv_pos_site_id
 _symmetry_equiv_pos_as_xyz
  1  'x, y, z'
loop_
 _atom_site_type_symbol
 _atom_site_label
 _atom_site_symmetry_multiplicity
 _atom_site_fract_x
 _atom_site_fract_y
 _atom_site_fract_z
 _atom_site_occupancy
  Rb  Rb0  1  0.667290  0.002966  0.501286  1
  Rb  Rb1  1  0.332710  0.002966  0.001286  1
  Rb  Rb2  1  0.840576  0.015693  0.795171  1
  Rb  Rb3  1  0.159424  0.015693  0.295171  1
  Rb  Rb4  1  0.515810  0.527657  0.978119  1
  Rb  Rb5  1  0.484190  0.527657  0.478119  1
  Rb  Rb6  1  0.979010  0.520252  0.611649  1
  Rb  Rb7  1  0.020990  0.520252  0.111649  1
  Rb  Rb8  1  0.833915  0.268447  0.381240  1
  Rb  Rb9  1  0.166085  0.268447  0.881240  1
  Rb  Rb10  1  0.656585  0.256276  0.082109  1
  Rb  Rb11  1  0.343415  0.256276  0.582109  1
  Rb  Rb12  1  0.521268  0.744498  0.264886  1
  Rb  Rb13  1  0.478732  0.744498  0.764886  1
  Rb  Rb14  1  0.983696  0.737200  0.899317  1
  Rb  Rb15  1  0.016304  0.737200  0.399317  1
  Cu  Cu16  1  0.392476  0.440838  0.213912  1
  Cu  Cu17  1  0.607524  0.440838  0.713912  1
  Cu  Cu18  1  0.114255  0.440326  0.331177  1
  Cu  Cu19  1  0.885745  0.440326  0.831177  1
  Cu  Cu20  1  0.624892  0.833785  0.048495  1
  Cu  Cu21  1  0.375108  0.833785  0.548495  1
  Cu  Cu22  1  0.895682  0.829090  0.164979  1
  Cu  Cu23  1  0.104318  0.829090  0.664979  1
  Cu  Cu24  1  0.371182  0.251987  0.329371  1
  Cu  Cu25  1  0.628818  0.251987  0.829371  1
  Cu  Cu26  1  0.901524  0.224871  0.622675  1
  Cu  Cu27  1  0.098476  0.224871  0.122675  1
  Cu  Cu28  1  0.627934  0.027472  0.257779  1
  Cu  Cu29  1  0.372066  0.027472  0.757779  1
  Cu  Cu30  1  0.850036  0.008373  0.058312  1
  Cu  Cu31  1  0.149964  0.008373  0.558312  1
  Cu  Cu32  1  0.753940  0.482691  0.287058  1
  Cu  Cu33  1  0.246060  0.482691  0.787058  1
  Cu  Cu34  1  0.255684  0.781075  0.088673  1
  Cu  Cu35  1  0.744316  0.781075  0.588673  1
  Cl  Cl36  1  0.658256  0.530835  0.178402  1
  Cl  Cl37  1  0.341744  0.530835  0.678402  1
  Cl  Cl38  1  0.874417  0.521444  0.415464  1
  Cl  Cl39  1  0.125583  0.521444  0.915464  1
  Cl  Cl40  1  0.819906  0.902039  0.303632  1
  Cl  Cl41  1  0.180094  0.902039  0.803632  1
  Cl  Cl42  1  0.699440  0.915669  0.950374  1
  Cl  Cl43  1  0.300560  0.915669  0.450374  1
  Cl  Cl44  1  0.290211  0.166103  0.188256  1
  Cl  Cl45  1  0.709789  0.166103  0.688256  1
  Cl  Cl46  1  0.795003  0.107765  0.192745  1
  Cl  Cl47  1  0.204997  0.107765  0.692745  1
  Cl  Cl48  1  0.996028  0.132439  0.996010  1
  Cl  Cl49  1  0.003972  0.132439  0.496010  1
  Cl  Cl50  1  0.505531  0.133360  0.376758  1
  Cl  Cl51  1  0.494469  0.133360  0.876758  1
  Cl  Cl52  1  0.971401  0.351880  0.209481  1
  Cl  Cl53  1  0.028599  0.351880  0.709481  1
  Cl  Cl54  1  0.549511  0.360842  0.291334  1
  Cl  Cl55  1  0.450489  0.360842  0.791334  1
  Cl  Cl56  1  0.324845  0.374623  0.071930  1
  Cl  Cl57  1  0.675155  0.374623  0.571930  1
  Cl  Cl58  1  0.204582  0.352660  0.423131  1
  Cl  Cl59  1  0.795418  0.352660  0.923131  1
  Cl  Cl60  1  0.155153  0.739273  0.199814  1
  Cl  Cl61  1  0.844847  0.739273  0.699814  1
  Cl  Cl62  1  0.376794  0.744648  0.962003  1
  Cl  Cl63  1  0.623206  0.744648  0.462003  1
  Cl  Cl64  1  0.471610  0.914906  0.167664  1
  Cl  Cl65  1  0.528390  0.914906  0.667664  1
  Cl  Cl66  1  0.052063  0.907628  0.085609  1
  Cl  Cl67  1  0.947937  0.907628  0.585609  1
  Cl  Cl68  1  0.763999  0.708768  0.068101  1
  Cl  Cl69  1  0.236001  0.708768  0.568101  1
  Cl  Cl70  1  0.263086  0.560622  0.310582  1
  Cl  Cl71  1  0.736914  0.560622  0.810582  1
