# generated using pymatgen
data_CaCr2O4
_symmetry_space_group_name_H-M   'P 1'
_cell_length_a   6.20686344
_cell_length_b   6.20613215
_cell_length_c   18.91966497
_cell_angle_alpha   60.54789884
_cell_angle_beta   60.59304877
_cell_angle_gamma   59.97877328
_symmetry_Int_Tables_number   1
_chemical_formula_structural   CaCr2O4
_chemical_formula_sum   'Ca6 Cr12 O24'
_cell_volume   519.65138777
_cell_formula_units_Z   6
loop_
 _symmetry_equiv_pos_site_id
 _symmetry_equiv_pos_as_xyz
  1  'x, y, z'
loop_
 _atom_site_type_symbol
 _atom_site_label
 _atom_site_symmetry_multiplicity
 _atom_site_fract_x
 _atom_site_fract_y
 _atom_site_fract_z
 _atom_site_occupancy
  Ca  Ca0  1  0.122454  0.122778  0.044064  1
  Ca  Ca1  1  0.121606  0.121726  0.378271  1
  Ca  Ca2  1  0.494349  0.494645  0.338783  1
  Ca  Ca3  1  0.122988  0.123335  0.710138  1
  Ca  Ca4  1  0.502089  0.502162  0.997853  1
  Ca  Ca5  1  0.879468  0.879389  0.620555  1
  Cr  Cr6  1  0.497711  0.497311  0.166097  1
  Cr  Cr7  1  0.497616  0.006985  0.166078  1
  Cr  Cr8  1  0.495965  0.496249  0.503636  1
  Cr  Cr9  1  0.007084  0.497206  0.166225  1
  Cr  Cr10  1  0.495960  0.996839  0.503634  1
  Cr  Cr11  1  0.502354  0.502414  0.664294  1
  Cr  Cr12  1  0.884298  0.883318  0.282964  1
  Cr  Cr13  1  0.500649  0.500658  0.828534  1
  Cr  Cr14  1  0.996686  0.496084  0.503695  1
  Cr  Cr15  1  0.500675  0.013049  0.828524  1
  Cr  Cr16  1  0.013093  0.500689  0.828507  1
  Cr  Cr17  1  0.885452  0.885245  0.947980  1
  O  O18  1  0.252704  0.252888  0.098487  1
  O  O19  1  0.267765  0.267331  0.232700  1
  O  O20  1  0.252523  0.699060  0.098609  1
  O  O21  1  0.699120  0.252463  0.098647  1
  O  O22  1  0.241924  0.242638  0.438658  1
  O  O23  1  0.267553  0.758999  0.238458  1
  O  O24  1  0.263061  0.263051  0.570305  1
  O  O25  1  0.759134  0.266303  0.239163  1
  O  O26  1  0.741071  0.740575  0.092483  1
  O  O27  1  0.241633  0.699405  0.438764  1
  O  O28  1  0.699273  0.242051  0.438771  1
  O  O29  1  0.757909  0.757481  0.239388  1
  O  O30  1  0.271297  0.271427  0.754683  1
  O  O31  1  0.306619  0.726733  0.580056  1
  O  O32  1  0.726740  0.306688  0.580052  1
  O  O33  1  0.271264  0.271086  0.895567  1
  O  O34  1  0.740237  0.742184  0.424780  1
  O  O35  1  0.271069  0.693246  0.754746  1
  O  O36  1  0.693090  0.271114  0.754809  1
  O  O37  1  0.726500  0.726426  0.580097  1
  O  O38  1  0.264585  0.766709  0.900666  1
  O  O39  1  0.766797  0.264475  0.900721  1
  O  O40  1  0.731006  0.731194  0.768783  1
  O  O41  1  0.766628  0.766396  0.900774  1
