# generated using pymatgen
data_Zr6Be15Cu8
_symmetry_space_group_name_H-M   'P 1'
_cell_length_a   7.90672808
_cell_length_b   7.90672808
_cell_length_c   7.90672808
_cell_angle_alpha   60.00000000
_cell_angle_beta   60.00000000
_cell_angle_gamma   60.00000000
_symmetry_Int_Tables_number   1
_chemical_formula_structural   Zr6Be15Cu8
_chemical_formula_sum   'Zr6 Be15 Cu8'
_cell_volume   349.52271996
_cell_formula_units_Z   1
loop_
 _symmetry_equiv_pos_site_id
 _symmetry_equiv_pos_as_xyz
  1  'x, y, z'
loop_
 _atom_site_type_symbol
 _atom_site_label
 _atom_site_symmetry_multiplicity
 _atom_site_fract_x
 _atom_site_fract_y
 _atom_site_fract_z
 _atom_site_occupancy
  Zr  Zr0  1  0.702924  0.702924  0.297076  1
  Zr  Zr1  1  0.297076  0.297076  0.702924  1
  Zr  Zr2  1  0.702924  0.297076  0.702924  1
  Zr  Zr3  1  0.297076  0.702924  0.297076  1
  Zr  Zr4  1  0.297076  0.702924  0.702924  1
  Zr  Zr5  1  0.702924  0.297076  0.297076  1
  Be  Be6  1  0.676542  0.676542  0.676542  1
  Be  Be7  1  0.323458  0.323458  0.323458  1
  Be  Be8  1  0.970375  0.676542  0.676542  1
  Be  Be9  1  0.676542  0.970375  0.676542  1
  Be  Be10  1  0.029625  0.323458  0.323458  1
  Be  Be11  1  0.323458  0.029625  0.323458  1
  Be  Be12  1  0.676542  0.676542  0.970375  1
  Be  Be13  1  0.323458  0.323458  0.029625  1
  Be  Be14  1  -0.000000  0.000000  0.500000  1
  Be  Be15  1  0.500000  0.500000  -0.000000  1
  Be  Be16  1  -0.000000  0.500000  -0.000000  1
  Be  Be17  1  0.500000  0.000000  0.500000  1
  Be  Be18  1  0.500000  0.000000  -0.000000  1
  Be  Be19  1  -0.000000  0.500000  0.500000  1
  Be  Be20  1  -0.000000  0.000000  -0.000000  1
  Cu  Cu21  1  0.876480  0.876480  0.876480  1
  Cu  Cu22  1  0.123520  0.123520  0.123520  1
  Cu  Cu23  1  0.370559  0.876480  0.876480  1
  Cu  Cu24  1  0.876480  0.370559  0.876480  1
  Cu  Cu25  1  0.629441  0.123520  0.123520  1
  Cu  Cu26  1  0.123520  0.629441  0.123520  1
  Cu  Cu27  1  0.876480  0.876480  0.370559  1
  Cu  Cu28  1  0.123520  0.123520  0.629441  1
