# generated using pymatgen
data_NaMn8O16
_symmetry_space_group_name_H-M   'P 1'
_cell_length_a   5.89134077
_cell_length_b   9.92410010
_cell_length_c   10.01858916
_cell_angle_alpha   89.33548456
_cell_angle_beta   90.10847035
_cell_angle_gamma   90.10252071
_symmetry_Int_Tables_number   1
_chemical_formula_structural   NaMn8O16
_chemical_formula_sum   'Na2 Mn16 O32'
_cell_volume   585.70803442
_cell_formula_units_Z   2
loop_
 _symmetry_equiv_pos_site_id
 _symmetry_equiv_pos_as_xyz
  1  'x, y, z'
loop_
 _atom_site_type_symbol
 _atom_site_label
 _atom_site_symmetry_multiplicity
 _atom_site_fract_x
 _atom_site_fract_y
 _atom_site_fract_z
 _atom_site_occupancy
  Na  Na0  1  0.250414  0.492924  0.500872  1
  Na  Na1  1  0.500270  0.993815  0.001199  1
  Mn  Mn2  1  0.499374  0.341373  0.835508  1
  Mn  Mn3  1  0.996907  0.341015  0.835138  1
  Mn  Mn4  1  0.500704  0.823628  0.648691  1
  Mn  Mn5  1  0.999448  0.823859  0.651032  1
  Mn  Mn6  1  0.002644  0.159071  0.350557  1
  Mn  Mn7  1  0.502411  0.159998  0.351648  1
  Mn  Mn8  1  0.998723  0.645380  0.165008  1
  Mn  Mn9  1  0.500058  0.644014  0.166608  1
  Mn  Mn10  1  0.751067  0.841925  0.335103  1
  Mn  Mn11  1  0.248700  0.842578  0.334923  1
  Mn  Mn12  1  0.751201  0.322608  0.150623  1
  Mn  Mn13  1  0.249301  0.322924  0.148694  1
  Mn  Mn14  1  0.749481  0.659465  0.850791  1
  Mn  Mn15  1  0.250182  0.659021  0.851484  1
  Mn  Mn16  1  0.751233  0.145359  0.665351  1
  Mn  Mn17  1  0.250124  0.144440  0.666820  1
  O  O18  1  0.746671  0.664076  0.042890  1
  O  O19  1  0.251852  0.664565  0.043400  1
  O  O20  1  0.750354  0.036255  0.344946  1
  O  O21  1  0.253039  0.036273  0.341787  1
  O  O22  1  0.750538  0.947782  0.659734  1
  O  O23  1  0.250450  0.949523  0.662137  1
  O  O24  1  0.748330  0.319475  0.957760  1
  O  O25  1  0.248818  0.323591  0.957146  1
  O  O26  1  0.005670  0.164740  0.542019  1
  O  O27  1  0.499719  0.164804  0.544540  1
  O  O28  1  0.999406  0.535558  0.842864  1
  O  O29  1  0.499617  0.535690  0.841546  1
  O  O30  1  0.500575  0.449230  0.161199  1
  O  O31  1  0.000128  0.446189  0.159434  1
  O  O32  1  0.499371  0.821917  0.457192  1
  O  O33  1  0.000763  0.821842  0.458118  1
  O  O34  1  0.499581  0.841091  0.203909  1
  O  O35  1  0.999491  0.850175  0.210713  1
  O  O36  1  0.999539  0.192578  0.156853  1
  O  O37  1  0.501295  0.188441  0.158072  1
  O  O38  1  0.999004  0.148035  0.794445  1
  O  O39  1  0.493042  0.147690  0.800631  1
  O  O40  1  0.500528  0.791403  0.843560  1
  O  O41  1  0.000580  0.788641  0.843751  1
  O  O42  1  0.747930  0.345484  0.709720  1
  O  O43  1  0.249162  0.340981  0.704179  1
  O  O44  1  0.750455  0.693579  0.658120  1
  O  O45  1  0.248417  0.689280  0.657626  1
  O  O46  1  0.748561  0.649416  0.295783  1
  O  O47  1  0.250900  0.648110  0.297923  1
  O  O48  1  0.752296  0.289053  0.343282  1
  O  O49  1  0.251673  0.291344  0.343351  1
