# generated using pymatgen
data_MgZn7O8
_symmetry_space_group_name_H-M   'P 1'
_cell_length_a   5.28702442
_cell_length_b   6.58731048
_cell_length_c   6.58697682
_cell_angle_alpha   119.99819730
_cell_angle_beta   90.00015440
_cell_angle_gamma   89.99973091
_symmetry_Int_Tables_number   1
_chemical_formula_structural   MgZn7O8
_chemical_formula_sum   'Mg1 Zn7 O8'
_cell_volume   198.67540434
_cell_formula_units_Z   1
loop_
 _symmetry_equiv_pos_site_id
 _symmetry_equiv_pos_as_xyz
  1  'x, y, z'
loop_
 _atom_site_type_symbol
 _atom_site_label
 _atom_site_symmetry_multiplicity
 _atom_site_fract_x
 _atom_site_fract_y
 _atom_site_fract_z
 _atom_site_occupancy
  Mg  Mg0  1  0.502916  0.333268  0.666636  1
  Zn  Zn1  1  0.500987  0.335143  0.167572  1
  Zn  Zn2  1  0.000123  0.499609  0.500295  1
  Zn  Zn3  1  0.000124  0.499610  0.999315  1
  Zn  Zn4  1  0.500988  0.832329  0.664755  1
  Zn  Zn5  1  0.500989  0.832328  0.167575  1
  Zn  Zn6  1  0.000123  0.000591  0.500294  1
  Zn  Zn7  1  0.999165  0.999932  0.999966  1
  O  O8  1  0.125198  0.333264  0.666633  1
  O  O9  1  0.618481  0.999934  0.999967  1
  O  O10  1  0.119746  0.833302  0.666704  1
  O  O11  1  0.119746  0.833300  0.166594  1
  O  O12  1  0.119743  0.333190  0.166596  1
  O  O13  1  0.619892  0.498940  0.500959  1
  O  O14  1  0.619889  0.498941  0.997981  1
  O  O15  1  0.619889  0.001921  0.500960  1
