# generated using pymatgen
data_Gd2ZnHg
_symmetry_space_group_name_H-M   'P 1'
_cell_length_a   5.20807277
_cell_length_b   5.20918349
_cell_length_c   5.20882848
_cell_angle_alpha   60.00108860
_cell_angle_beta   60.00927398
_cell_angle_gamma   60.00606409
_symmetry_Int_Tables_number   1
_chemical_formula_structural   Gd2ZnHg
_chemical_formula_sum   'Gd2 Zn1 Hg1'
_cell_volume   99.93685181
_cell_formula_units_Z   1
loop_
 _symmetry_equiv_pos_site_id
 _symmetry_equiv_pos_as_xyz
  1  'x, y, z'
loop_
 _atom_site_type_symbol
 _atom_site_label
 _atom_site_symmetry_multiplicity
 _atom_site_fract_x
 _atom_site_fract_y
 _atom_site_fract_z
 _atom_site_occupancy
  Gd  Gd0  1  0.000000  0.000015  -0.000005  1
  Gd  Gd1  1  0.499997  0.499983  0.500008  1
  Zn  Zn2  1  0.750001  0.749996  0.750000  1
  Hg  Hg3  1  0.250000  0.250005  0.249995  1
