# generated using pymatgen
data_V2(Co7B2)3
_symmetry_space_group_name_H-M   'P 1'
_cell_length_a   7.36160778
_cell_length_b   7.36160778
_cell_length_c   7.36160778
_cell_angle_alpha   60.00000000
_cell_angle_beta   60.00000000
_cell_angle_gamma   60.00000000
_symmetry_Int_Tables_number   1
_chemical_formula_structural   V2(Co7B2)3
_chemical_formula_sum   'V2 Co21 B6'
_cell_volume   282.09996121
_cell_formula_units_Z   1
loop_
 _symmetry_equiv_pos_site_id
 _symmetry_equiv_pos_as_xyz
  1  'x, y, z'
loop_
 _atom_site_type_symbol
 _atom_site_label
 _atom_site_symmetry_multiplicity
 _atom_site_fract_x
 _atom_site_fract_y
 _atom_site_fract_z
 _atom_site_occupancy
  V  V0  1  0.250000  0.250000  0.250000  1
  V  V1  1  0.750000  0.750000  0.750000  1
  Co  Co2  1  0.000000  -0.000000  -0.000000  1
  Co  Co3  1  0.858957  0.380348  0.380348  1
  Co  Co4  1  0.380348  0.858957  0.380348  1
  Co  Co5  1  0.380348  0.380348  0.858957  1
  Co  Co6  1  0.380348  0.380348  0.380348  1
  Co  Co7  1  0.141043  0.619652  0.619652  1
  Co  Co8  1  0.619652  0.141043  0.619652  1
  Co  Co9  1  0.619652  0.619652  0.141043  1
  Co  Co10  1  0.619652  0.619652  0.619652  1
  Co  Co11  1  0.661903  -0.000000  0.000000  1
  Co  Co12  1  0.661903  0.000000  0.338097  1
  Co  Co13  1  0.661903  0.338097  0.000000  1
  Co  Co14  1  0.000000  0.661903  0.338097  1
  Co  Co15  1  0.000000  0.661903  -0.000000  1
  Co  Co16  1  0.338097  0.661903  -0.000000  1
  Co  Co17  1  0.000000  0.338097  0.661903  1
  Co  Co18  1  0.338097  0.000000  0.661903  1
  Co  Co19  1  -0.000000  0.000000  0.661903  1
  Co  Co20  1  0.338097  -0.000000  0.000000  1
  Co  Co21  1  -0.000000  0.338097  -0.000000  1
  Co  Co22  1  0.000000  -0.000000  0.338097  1
  B  B23  1  0.725152  0.274848  0.274848  1
  B  B24  1  0.725152  0.274848  0.725152  1
  B  B25  1  0.725152  0.725152  0.274848  1
  B  B26  1  0.274848  0.725152  0.725152  1
  B  B27  1  0.274848  0.725152  0.274848  1
  B  B28  1  0.274848  0.274848  0.725152  1
