# generated using pymatgen
data_K3TlCl6
_symmetry_space_group_name_H-M   'P 1'
_cell_length_a   7.88272815
_cell_length_b   7.88272851
_cell_length_c   7.88272849
_cell_angle_alpha   59.99999882
_cell_angle_beta   59.99999820
_cell_angle_gamma   59.99999831
_symmetry_Int_Tables_number   1
_chemical_formula_structural   K3TlCl6
_chemical_formula_sum   'K3 Tl1 Cl6'
_cell_volume   346.34958682
_cell_formula_units_Z   1
loop_
 _symmetry_equiv_pos_site_id
 _symmetry_equiv_pos_as_xyz
  1  'x, y, z'
loop_
 _atom_site_type_symbol
 _atom_site_label
 _atom_site_symmetry_multiplicity
 _atom_site_fract_x
 _atom_site_fract_y
 _atom_site_fract_z
 _atom_site_occupancy
  K  K0  1  0.250000  0.250000  0.250000  1
  K  K1  1  0.750000  0.750000  0.750000  1
  K  K2  1  0.500000  0.500000  0.500000  1
  Tl  Tl3  1  0.000000  -0.000000  0.000000  1
  Cl  Cl4  1  0.234084  0.765916  0.234084  1
  Cl  Cl5  1  0.765916  0.765916  0.234084  1
  Cl  Cl6  1  0.765916  0.234084  0.765916  1
  Cl  Cl7  1  0.765916  0.234084  0.234084  1
  Cl  Cl8  1  0.234084  0.765916  0.765916  1
  Cl  Cl9  1  0.234084  0.234084  0.765916  1
