# generated using pymatgen
data_Ca(CuO2)2
_symmetry_space_group_name_H-M   'P 1'
_cell_length_a   6.21914422
_cell_length_b   6.21865072
_cell_length_c   18.49671667
_cell_angle_alpha   59.76400266
_cell_angle_beta   59.72452507
_cell_angle_gamma   60.02526864
_symmetry_Int_Tables_number   1
_chemical_formula_structural   Ca(CuO2)2
_chemical_formula_sum   'Ca6 Cu12 O24'
_cell_volume   503.96334695
_cell_formula_units_Z   6
loop_
 _symmetry_equiv_pos_site_id
 _symmetry_equiv_pos_as_xyz
  1  'x, y, z'
loop_
 _atom_site_type_symbol
 _atom_site_label
 _atom_site_symmetry_multiplicity
 _atom_site_fract_x
 _atom_site_fract_y
 _atom_site_fract_z
 _atom_site_occupancy
  Ca  Ca0  1  0.121941  0.122079  0.044424  1
  Ca  Ca1  1  0.111205  0.111229  0.388724  1
  Ca  Ca2  1  0.501023  0.501135  0.998861  1
  Ca  Ca3  1  0.109919  0.109879  0.723388  1
  Ca  Ca4  1  0.886343  0.886251  0.280489  1
  Ca  Ca5  1  0.869347  0.869380  0.630751  1
  Cu  Cu6  1  0.996200  0.495421  0.170966  1
  Cu  Cu7  1  0.495276  0.495352  0.170987  1
  Cu  Cu8  1  0.001201  0.499048  0.500243  1
  Cu  Cu9  1  0.495157  0.996436  0.171036  1
  Cu  Cu10  1  0.498571  0.498434  0.334873  1
  Cu  Cu11  1  0.499141  0.499097  0.500227  1
  Cu  Cu12  1  0.010521  0.497960  0.831093  1
  Cu  Cu13  1  0.499069  0.001202  0.500237  1
  Cu  Cu14  1  0.498103  0.010279  0.831153  1
  Cu  Cu15  1  0.505678  0.505745  0.660967  1
  Cu  Cu16  1  0.498262  0.497850  0.831136  1
  Cu  Cu17  1  0.882160  0.881779  0.951356  1
  O  O18  1  0.240415  0.240493  0.109458  1
  O  O19  1  0.254219  0.253355  0.246269  1
  O  O20  1  0.240063  0.690648  0.109361  1
  O  O21  1  0.690309  0.240203  0.109382  1
  O  O22  1  0.324040  0.730560  0.238696  1
  O  O23  1  0.270991  0.270810  0.424725  1
  O  O24  1  0.730591  0.323832  0.238680  1
  O  O25  1  0.756761  0.757260  0.076108  1
  O  O26  1  0.271157  0.683888  0.424693  1
  O  O27  1  0.262400  0.262369  0.570913  1
  O  O28  1  0.730254  0.730420  0.238515  1
  O  O29  1  0.683850  0.271001  0.424744  1
  O  O30  1  0.306691  0.736018  0.573773  1
  O  O31  1  0.281798  0.281798  0.748781  1
  O  O32  1  0.735977  0.306628  0.573791  1
  O  O33  1  0.737354  0.737349  0.429447  1
  O  O34  1  0.271940  0.271318  0.894999  1
  O  O35  1  0.281715  0.689749  0.748798  1
  O  O36  1  0.736136  0.736205  0.573785  1
  O  O37  1  0.689770  0.281358  0.748772  1
  O  O38  1  0.266460  0.768984  0.899024  1
  O  O39  1  0.721397  0.722375  0.778192  1
  O  O40  1  0.768497  0.266559  0.899066  1
  O  O41  1  0.768099  0.768259  0.899116  1
