# generated using pymatgen
data_Y3(Ga2Cu)2
_symmetry_space_group_name_H-M   'P 1'
_cell_length_a   4.29164549
_cell_length_b   4.28913481
_cell_length_c   22.29260732
_cell_angle_alpha   90.00000000
_cell_angle_beta   90.00173987
_cell_angle_gamma   60.01934296
_symmetry_Int_Tables_number   1
_chemical_formula_structural   Y3(Ga2Cu)2
_chemical_formula_sum   'Y6 Ga8 Cu4'
_cell_volume   355.44274232
_cell_formula_units_Z   2
loop_
 _symmetry_equiv_pos_site_id
 _symmetry_equiv_pos_as_xyz
  1  'x, y, z'
loop_
 _atom_site_type_symbol
 _atom_site_label
 _atom_site_symmetry_multiplicity
 _atom_site_fract_x
 _atom_site_fract_y
 _atom_site_fract_z
 _atom_site_occupancy
  Y  Y0  1  0.999850  0.000075  0.256434  1
  Y  Y1  1  0.000116  0.999942  0.589083  1
  Y  Y2  1  0.999846  0.000077  0.921999  1
  Y  Y3  1  0.000106  0.999947  0.078967  1
  Y  Y4  1  0.999969  0.000015  0.412682  1
  Y  Y5  1  0.000139  0.999930  0.744950  1
  Ga  Ga6  1  0.666897  0.666552  0.338407  1
  Ga  Ga7  1  0.666922  0.666539  0.671141  1
  Ga  Ga8  1  0.666774  0.666613  0.154576  1
  Ga  Ga9  1  0.666651  0.666675  0.487278  1
  Ga  Ga10  1  0.666834  0.666583  0.819420  1
  Ga  Ga11  1  0.333160  0.333420  0.181416  1
  Ga  Ga12  1  0.333309  0.333345  0.513592  1
  Ga  Ga13  1  0.333202  0.333399  0.845444  1
  Cu  Cu14  1  0.333201  0.333400  0.326409  1
  Cu  Cu15  1  0.333091  0.333455  0.658626  1
  Cu  Cu16  1  0.333242  0.333379  0.994750  1
  Cu  Cu17  1  0.666691  0.666654  0.004823  1
