# generated using pymatgen
data_Nb2AgS4
_symmetry_space_group_name_H-M   'P 1'
_cell_length_a   3.39658513
_cell_length_b   3.39658070
_cell_length_c   14.56629751
_cell_angle_alpha   90.00167168
_cell_angle_beta   89.99735436
_cell_angle_gamma   120.00208685
_symmetry_Int_Tables_number   1
_chemical_formula_structural   Nb2AgS4
_chemical_formula_sum   'Nb2 Ag1 S4'
_cell_volume   145.53086701
_cell_formula_units_Z   1
loop_
 _symmetry_equiv_pos_site_id
 _symmetry_equiv_pos_as_xyz
  1  'x, y, z'
loop_
 _atom_site_type_symbol
 _atom_site_label
 _atom_site_symmetry_multiplicity
 _atom_site_fract_x
 _atom_site_fract_y
 _atom_site_fract_z
 _atom_site_occupancy
  Nb  Nb0  1  0.666662  0.333351  0.757881  1
  Nb  Nb1  1  0.333354  0.666657  0.246485  1
  Ag  Ag2  1  0.666686  0.333320  0.521521  1
  S  S3  1  0.666667  0.333318  0.354057  1
  S  S4  1  0.333332  0.666671  0.649637  1
  S  S5  1  0.333311  0.666674  0.861721  1
  S  S6  1  0.666688  0.333308  0.142698  1
