# generated using pymatgen
data_ReW2C
_symmetry_space_group_name_H-M   'P 1'
_cell_length_a   2.97732830
_cell_length_b   2.97598105
_cell_length_c   13.97329725
_cell_angle_alpha   90.00000002
_cell_angle_beta   89.99291844
_cell_angle_gamma   119.98502677
_symmetry_Int_Tables_number   1
_chemical_formula_structural   ReW2C
_chemical_formula_sum   'Re2 W4 C2'
_cell_volume   107.23879345
_cell_formula_units_Z   2
loop_
 _symmetry_equiv_pos_site_id
 _symmetry_equiv_pos_as_xyz
  1  'x, y, z'
loop_
 _atom_site_type_symbol
 _atom_site_label
 _atom_site_symmetry_multiplicity
 _atom_site_fract_x
 _atom_site_fract_y
 _atom_site_fract_z
 _atom_site_occupancy
  Re  Re0  1  0.666067  0.333033  0.593599  1
  Re  Re1  1  0.666335  0.333168  0.913197  1
  W  W2  1  0.333835  0.666917  0.071463  1
  W  W3  1  0.333888  0.666944  0.415817  1
  W  W4  1  0.333873  0.666937  0.756656  1
  W  W5  1  0.666035  0.333018  0.248341  1
  C  C6  1  0.000050  0.000025  0.160779  1
  C  C7  1  0.999916  0.999958  0.506814  1
