# generated using pymatgen
data_Yb3Si11Pt23
_symmetry_space_group_name_H-M   'P 1'
_cell_length_a   12.02963792
_cell_length_b   12.02963792
_cell_length_c   12.02963792
_cell_angle_alpha   60.00000000
_cell_angle_beta   60.00000000
_cell_angle_gamma   60.00000000
_symmetry_Int_Tables_number   1
_chemical_formula_structural   Yb3Si11Pt23
_chemical_formula_sum   'Yb6 Si22 Pt46'
_cell_volume   1230.95639681
_cell_formula_units_Z   2
loop_
 _symmetry_equiv_pos_site_id
 _symmetry_equiv_pos_as_xyz
  1  'x, y, z'
loop_
 _atom_site_type_symbol
 _atom_site_label
 _atom_site_symmetry_multiplicity
 _atom_site_fract_x
 _atom_site_fract_y
 _atom_site_fract_z
 _atom_site_occupancy
  Yb  Yb0  1  0.500000  -0.000000  -0.000000  1
  Yb  Yb1  1  0.500000  -0.000000  0.500000  1
  Yb  Yb2  1  0.500000  0.500000  -0.000000  1
  Yb  Yb3  1  0.000000  0.500000  0.500000  1
  Yb  Yb4  1  0.000000  0.500000  -0.000000  1
  Yb  Yb5  1  0.000000  -0.000000  0.500000  1
  Si  Si6  1  0.828188  0.171812  0.171812  1
  Si  Si7  1  0.828188  0.171812  0.828188  1
  Si  Si8  1  0.828188  0.828188  0.171812  1
  Si  Si9  1  0.171812  0.828188  0.828188  1
  Si  Si10  1  0.171812  0.828188  0.171812  1
  Si  Si11  1  0.171812  0.171812  0.828188  1
  Si  Si12  1  0.505834  0.164722  0.164722  1
  Si  Si13  1  0.164722  0.505834  0.164722  1
  Si  Si14  1  0.164722  0.164722  0.505834  1
  Si  Si15  1  0.164722  0.164722  0.164722  1
  Si  Si16  1  0.494166  0.835278  0.835278  1
  Si  Si17  1  0.835278  0.494166  0.835278  1
  Si  Si18  1  0.835278  0.835278  0.494166  1
  Si  Si19  1  0.835278  0.835278  0.835278  1
  Si  Si20  1  0.820479  0.393174  0.393174  1
  Si  Si21  1  0.393174  0.820479  0.393174  1
  Si  Si22  1  0.393174  0.393174  0.820479  1
  Si  Si23  1  0.393174  0.393174  0.393174  1
  Si  Si24  1  0.179521  0.606826  0.606826  1
  Si  Si25  1  0.606826  0.179521  0.606826  1
  Si  Si26  1  0.606826  0.606826  0.179521  1
  Si  Si27  1  0.606826  0.606826  0.606826  1
  Pt  Pt28  1  0.751684  0.082772  0.082772  1
  Pt  Pt29  1  0.082772  0.751684  0.082772  1
  Pt  Pt30  1  0.082772  0.082772  0.751684  1
  Pt  Pt31  1  0.082772  0.082772  0.082772  1
  Pt  Pt32  1  0.248316  0.917228  0.917228  1
  Pt  Pt33  1  0.917228  0.248316  0.917228  1
  Pt  Pt34  1  0.917228  0.917228  0.248316  1
  Pt  Pt35  1  0.917228  0.917228  0.917228  1
  Pt  Pt36  1  0.077127  0.307624  0.307624  1
  Pt  Pt37  1  0.307624  0.077127  0.307624  1
  Pt  Pt38  1  0.307624  0.307624  0.077127  1
  Pt  Pt39  1  0.307624  0.307624  0.307624  1
  Pt  Pt40  1  0.922873  0.692376  0.692376  1
  Pt  Pt41  1  0.692376  0.922873  0.692376  1
  Pt  Pt42  1  0.692376  0.692376  0.922873  1
  Pt  Pt43  1  0.692376  0.692376  0.692376  1
  Pt  Pt44  1  0.624515  0.375485  0.375485  1
  Pt  Pt45  1  0.624515  0.375485  0.624515  1
  Pt  Pt46  1  0.624515  0.624515  0.375485  1
  Pt  Pt47  1  0.375485  0.624515  0.624515  1
  Pt  Pt48  1  0.375485  0.624515  0.375485  1
  Pt  Pt49  1  0.375485  0.375485  0.624515  1
  Pt  Pt50  1  0.577275  0.917173  0.252776  1
  Pt  Pt51  1  0.577275  0.252776  0.252776  1
  Pt  Pt52  1  0.577275  0.252776  0.917173  1
  Pt  Pt53  1  0.917173  0.577275  0.252776  1
  Pt  Pt54  1  0.252776  0.577275  0.917173  1
  Pt  Pt55  1  0.252776  0.577275  0.252776  1
  Pt  Pt56  1  0.252776  0.252776  0.577275  1
  Pt  Pt57  1  0.252776  0.917173  0.577275  1
  Pt  Pt58  1  0.917173  0.252776  0.577275  1
  Pt  Pt59  1  0.252776  0.252776  0.917173  1
  Pt  Pt60  1  0.917173  0.252776  0.252776  1
  Pt  Pt61  1  0.252776  0.917173  0.252776  1
  Pt  Pt62  1  0.422725  0.082827  0.747224  1
  Pt  Pt63  1  0.422725  0.747224  0.747224  1
  Pt  Pt64  1  0.422725  0.747224  0.082827  1
  Pt  Pt65  1  0.082827  0.422725  0.747224  1
  Pt  Pt66  1  0.747224  0.422725  0.082827  1
  Pt  Pt67  1  0.747224  0.422725  0.747224  1
  Pt  Pt68  1  0.747224  0.747224  0.422725  1
  Pt  Pt69  1  0.747224  0.082827  0.422725  1
  Pt  Pt70  1  0.082827  0.747224  0.422725  1
  Pt  Pt71  1  0.747224  0.747224  0.082827  1
  Pt  Pt72  1  0.082827  0.747224  0.747224  1
  Pt  Pt73  1  0.747224  0.082827  0.747224  1
