# generated using pymatgen
data_Ca6MnAl11
_symmetry_space_group_name_H-M   'P 1'
_cell_length_a   5.71038122
_cell_length_b   5.71038122
_cell_length_c   54.15496533
_cell_angle_alpha   89.99979986
_cell_angle_beta   90.00020014
_cell_angle_gamma   120.00535400
_symmetry_Int_Tables_number   1
_chemical_formula_structural   Ca6MnAl11
_chemical_formula_sum   'Ca24 Mn4 Al44'
_cell_volume   1529.24012930
_cell_formula_units_Z   4
loop_
 _symmetry_equiv_pos_site_id
 _symmetry_equiv_pos_as_xyz
  1  'x, y, z'
loop_
 _atom_site_type_symbol
 _atom_site_label
 _atom_site_symmetry_multiplicity
 _atom_site_fract_x
 _atom_site_fract_y
 _atom_site_fract_z
 _atom_site_occupancy
  Ca  Ca0  1  0.999995  0.000005  0.135358  1
  Ca  Ca1  1  0.999982  0.000018  0.468797  1
  Ca  Ca2  1  0.999976  0.000024  0.802131  1
  Ca  Ca3  1  0.000016  0.999984  0.198001  1
  Ca  Ca4  1  0.999981  0.000019  0.530796  1
  Ca  Ca5  1  0.999977  0.000023  0.864121  1
  Ca  Ca6  1  0.000001  -0.000001  0.302127  1
  Ca  Ca7  1  0.000002  -0.000002  0.636402  1
  Ca  Ca8  1  0.000011  -0.000011  0.969729  1
  Ca  Ca9  1  0.000024  0.999976  0.031289  1
  Ca  Ca10  1  0.999992  0.000008  0.364619  1
  Ca  Ca11  1  0.000013  0.999988  0.698014  1
  Ca  Ca12  1  0.666663  0.333336  0.281284  1
  Ca  Ca13  1  0.666679  0.333321  0.614589  1
  Ca  Ca14  1  0.666689  0.333311  0.947895  1
  Ca  Ca15  1  0.333305  0.666695  0.051889  1
  Ca  Ca16  1  0.333333  0.666667  0.385406  1
  Ca  Ca17  1  0.333326  0.666674  0.718569  1
  Ca  Ca18  1  0.333335  0.666665  0.114808  1
  Ca  Ca19  1  0.333329  0.666671  0.448112  1
  Ca  Ca20  1  0.333330  0.666670  0.781411  1
  Ca  Ca21  1  0.666678  0.333322  0.218493  1
  Ca  Ca22  1  0.666697  0.333303  0.552299  1
  Ca  Ca23  1  0.666713  0.333287  0.885612  1
  Mn  Mn24  1  0.666636  0.333364  0.125285  1
  Mn  Mn25  1  0.666662  0.333338  0.457891  1
  Mn  Mn26  1  0.666707  0.333293  0.791236  1
  Mn  Mn27  1  0.333395  0.666605  0.208012  1
  Al  Al28  1  0.832783  0.665630  0.084502  1
  Al  Al29  1  0.832773  0.665573  0.417856  1
  Al  Al30  1  0.832756  0.665527  0.751176  1
  Al  Al31  1  0.832808  0.167192  0.084502  1
  Al  Al32  1  0.832794  0.167206  0.417855  1
  Al  Al33  1  0.832762  0.167238  0.751174  1
  Al  Al34  1  0.334370  0.167217  0.084502  1
  Al  Al35  1  0.334427  0.167227  0.417856  1
  Al  Al36  1  0.334473  0.167244  0.751176  1
  Al  Al37  1  0.167430  0.334802  0.248763  1
  Al  Al38  1  0.162492  0.324969  0.583336  1
  Al  Al39  1  0.162457  0.324901  0.916674  1
  Al  Al40  1  0.167407  0.832593  0.248762  1
  Al  Al41  1  0.162502  0.837498  0.583335  1
  Al  Al42  1  0.162461  0.837539  0.916674  1
  Al  Al43  1  0.665198  0.832570  0.248763  1
  Al  Al44  1  0.675031  0.837508  0.583336  1
  Al  Al45  1  0.675099  0.837543  0.916674  1
  Al  Al46  1  0.499918  0.999837  0.166727  1
  Al  Al47  1  0.502882  0.005817  0.498839  1
  Al  Al48  1  0.503033  0.006139  0.832195  1
  Al  Al49  1  0.499918  0.500082  0.166726  1
  Al  Al50  1  0.502876  0.497124  0.498845  1
  Al  Al51  1  0.503054  0.496946  0.832200  1
  Al  Al52  1  0.000163  0.500082  0.166727  1
  Al  Al53  1  0.994183  0.497118  0.498839  1
  Al  Al54  1  0.993861  0.496967  0.832195  1
  Al  Al55  1  0.500663  0.001219  0.999893  1
  Al  Al56  1  0.499945  0.999898  0.333343  1
  Al  Al57  1  0.500607  0.001160  0.666565  1
  Al  Al58  1  0.499950  0.500050  0.333343  1
  Al  Al59  1  0.500576  0.499424  0.666565  1
  Al  Al60  1  0.500610  0.499390  0.999895  1
  Al  Al61  1  0.998781  0.499337  0.999893  1
  Al  Al62  1  0.000102  0.500055  0.333343  1
  Al  Al63  1  0.998840  0.499393  0.666565  1
  Al  Al64  1  0.333319  0.666681  0.541445  1
  Al  Al65  1  0.333286  0.666714  0.874754  1
  Al  Al66  1  0.333337  0.666663  0.290335  1
  Al  Al67  1  0.333352  0.666648  0.623779  1
  Al  Al68  1  0.333345  0.666655  0.957100  1
  Al  Al69  1  0.666633  0.333367  0.042937  1
  Al  Al70  1  0.666665  0.333335  0.376295  1
  Al  Al71  1  0.666631  0.333369  0.709568  1
