# generated using pymatgen
data_Bi(CO2)3
_symmetry_space_group_name_H-M   'P 1'
_cell_length_a   4.27326072
_cell_length_b   10.90119041
_cell_length_c   10.90117057
_cell_angle_alpha   119.99279838
_cell_angle_beta   90.00019742
_cell_angle_gamma   89.99882242
_symmetry_Int_Tables_number   1
_chemical_formula_structural   Bi(CO2)3
_chemical_formula_sum   'Bi3 C9 O18'
_cell_volume   439.81353919
_cell_formula_units_Z   3
loop_
 _symmetry_equiv_pos_site_id
 _symmetry_equiv_pos_as_xyz
  1  'x, y, z'
loop_
 _atom_site_type_symbol
 _atom_site_label
 _atom_site_symmetry_multiplicity
 _atom_site_fract_x
 _atom_site_fract_y
 _atom_site_fract_z
 _atom_site_occupancy
  Bi  Bi0  1  0.124443  0.000012  0.999997  1
  Bi  Bi1  1  0.766514  0.333344  0.666666  1
  Bi  Bi2  1  0.471130  0.666677  0.333328  1
  C  C3  1  0.566736  0.300574  0.150286  1
  C  C4  1  0.566840  0.849700  0.150297  1
  C  C5  1  0.566734  0.849716  0.699421  1
  C  C6  1  0.216021  0.633059  0.816512  1
  C  C7  1  0.216111  0.183456  0.816543  1
  C  C8  1  0.216028  0.183484  0.366937  1
  C  C9  1  0.887073  0.970253  0.485112  1
  C  C10  1  0.887089  0.514873  0.485129  1
  C  C11  1  0.887043  0.514885  0.029751  1
  O  O12  1  0.373249  0.397403  0.198718  1
  O  O13  1  0.373269  0.801288  0.198701  1
  O  O14  1  0.373251  0.801279  0.602599  1
  O  O15  1  0.024623  0.730787  0.865406  1
  O  O16  1  0.024666  0.134596  0.865392  1
  O  O17  1  0.024620  0.134590  0.269215  1
  O  O18  1  0.681271  0.062037  0.531029  1
  O  O19  1  0.681237  0.468978  0.531022  1
  O  O20  1  0.681248  0.468968  0.937963  1
  O  O21  1  0.551894  0.168075  0.084028  1
  O  O22  1  0.551905  0.915969  0.084035  1
  O  O23  1  0.551888  0.915979  0.831932  1
  O  O24  1  0.198068  0.500682  0.750328  1
  O  O25  1  0.198099  0.249663  0.750343  1
  O  O26  1  0.198078  0.249680  0.499324  1
  O  O27  1  0.889093  0.837462  0.418720  1
  O  O28  1  0.889092  0.581261  0.418741  1
  O  O29  1  0.889087  0.581272  0.162525  1
