# generated using pymatgen
data_Ti6Al16Ir7
_symmetry_space_group_name_H-M   'P 1'
_cell_length_a   8.59075751
_cell_length_b   8.59075751
_cell_length_c   8.59075751
_cell_angle_alpha   60.00000000
_cell_angle_beta   60.00000000
_cell_angle_gamma   60.00000000
_symmetry_Int_Tables_number   1
_chemical_formula_structural   Ti6Al16Ir7
_chemical_formula_sum   'Ti6 Al16 Ir7'
_cell_volume   448.31098786
_cell_formula_units_Z   1
loop_
 _symmetry_equiv_pos_site_id
 _symmetry_equiv_pos_as_xyz
  1  'x, y, z'
loop_
 _atom_site_type_symbol
 _atom_site_label
 _atom_site_symmetry_multiplicity
 _atom_site_fract_x
 _atom_site_fract_y
 _atom_site_fract_z
 _atom_site_occupancy
  Ti  Ti0  1  0.678976  0.321024  0.321024  1
  Ti  Ti1  1  0.678976  0.321024  0.678976  1
  Ti  Ti2  1  0.678976  0.678976  0.321024  1
  Ti  Ti3  1  0.321024  0.678976  0.678976  1
  Ti  Ti4  1  0.321024  0.678976  0.321024  1
  Ti  Ti5  1  0.321024  0.321024  0.678976  1
  Al  Al6  1  0.638453  0.120516  0.120516  1
  Al  Al7  1  0.120516  0.638453  0.120516  1
  Al  Al8  1  0.120516  0.120516  0.638453  1
  Al  Al9  1  0.120516  0.120516  0.120516  1
  Al  Al10  1  0.361547  0.879484  0.879484  1
  Al  Al11  1  0.879484  0.361547  0.879484  1
  Al  Al12  1  0.879484  0.879484  0.361547  1
  Al  Al13  1  0.879484  0.879484  0.879484  1
  Al  Al14  1  0.971246  0.342918  0.342918  1
  Al  Al15  1  0.342918  0.971246  0.342918  1
  Al  Al16  1  0.342918  0.342918  0.971246  1
  Al  Al17  1  0.342918  0.342918  0.342918  1
  Al  Al18  1  0.028754  0.657082  0.657082  1
  Al  Al19  1  0.657082  0.028754  0.657082  1
  Al  Al20  1  0.657082  0.657082  0.028754  1
  Al  Al21  1  0.657082  0.657082  0.657082  1
  Ir  Ir22  1  0.000000  -0.000000  0.000000  1
  Ir  Ir23  1  0.500000  -0.000000  0.000000  1
  Ir  Ir24  1  0.500000  -0.000000  0.500000  1
  Ir  Ir25  1  0.500000  0.500000  0.000000  1
  Ir  Ir26  1  0.000000  0.500000  0.500000  1
  Ir  Ir27  1  0.000000  0.500000  0.000000  1
  Ir  Ir28  1  0.000000  -0.000000  0.500000  1
