# generated using pymatgen
data_ErLuCu2
_symmetry_space_group_name_H-M   'P 1'
_cell_length_a   4.83247098
_cell_length_b   4.83250376
_cell_length_c   4.83344513
_cell_angle_alpha   59.97983604
_cell_angle_beta   59.97027093
_cell_angle_gamma   59.97030554
_symmetry_Int_Tables_number   1
_chemical_formula_structural   ErLuCu2
_chemical_formula_sum   'Er1 Lu1 Cu2'
_cell_volume   79.76675037
_cell_formula_units_Z   1
loop_
 _symmetry_equiv_pos_site_id
 _symmetry_equiv_pos_as_xyz
  1  'x, y, z'
loop_
 _atom_site_type_symbol
 _atom_site_label
 _atom_site_symmetry_multiplicity
 _atom_site_fract_x
 _atom_site_fract_y
 _atom_site_fract_z
 _atom_site_occupancy
  Er  Er0  1  0.249990  0.249994  0.250015  1
  Lu  Lu1  1  0.749995  0.749990  0.750010  1
  Cu  Cu2  1  0.500499  0.500513  0.500477  1
  Cu  Cu3  1  0.999514  0.999501  0.999496  1
