# generated using pymatgen
data_Ti6Ga16Ir7
_symmetry_space_group_name_H-M   'P 1'
_cell_length_a   8.63477452
_cell_length_b   8.63477452
_cell_length_c   8.63477452
_cell_angle_alpha   60.00000000
_cell_angle_beta   60.00000000
_cell_angle_gamma   60.00000000
_symmetry_Int_Tables_number   1
_chemical_formula_structural   Ti6Ga16Ir7
_chemical_formula_sum   'Ti6 Ga16 Ir7'
_cell_volume   455.23747593
_cell_formula_units_Z   1
loop_
 _symmetry_equiv_pos_site_id
 _symmetry_equiv_pos_as_xyz
  1  'x, y, z'
loop_
 _atom_site_type_symbol
 _atom_site_label
 _atom_site_symmetry_multiplicity
 _atom_site_fract_x
 _atom_site_fract_y
 _atom_site_fract_z
 _atom_site_occupancy
  Ti  Ti0  1  0.696219  0.303781  0.303781  1
  Ti  Ti1  1  0.696219  0.303781  0.696219  1
  Ti  Ti2  1  0.696219  0.696219  0.303781  1
  Ti  Ti3  1  0.303781  0.696219  0.696219  1
  Ti  Ti4  1  0.303781  0.696219  0.303781  1
  Ti  Ti5  1  0.303781  0.303781  0.696219  1
  Ga  Ga6  1  0.630539  0.123154  0.123154  1
  Ga  Ga7  1  0.123154  0.630539  0.123154  1
  Ga  Ga8  1  0.123154  0.123154  0.630539  1
  Ga  Ga9  1  0.123154  0.123154  0.123154  1
  Ga  Ga10  1  0.369461  0.876846  0.876846  1
  Ga  Ga11  1  0.876846  0.369461  0.876846  1
  Ga  Ga12  1  0.876846  0.876846  0.369461  1
  Ga  Ga13  1  0.876846  0.876846  0.876846  1
  Ga  Ga14  1  0.940296  0.353235  0.353235  1
  Ga  Ga15  1  0.353235  0.940296  0.353235  1
  Ga  Ga16  1  0.353235  0.353235  0.940296  1
  Ga  Ga17  1  0.353235  0.353235  0.353235  1
  Ga  Ga18  1  0.059704  0.646765  0.646765  1
  Ga  Ga19  1  0.646765  0.059704  0.646765  1
  Ga  Ga20  1  0.646765  0.646765  0.059704  1
  Ga  Ga21  1  0.646765  0.646765  0.646765  1
  Ir  Ir22  1  0.000000  0.000000  -0.000000  1
  Ir  Ir23  1  0.500000  0.000000  -0.000000  1
  Ir  Ir24  1  0.500000  0.000000  0.500000  1
  Ir  Ir25  1  0.500000  0.500000  -0.000000  1
  Ir  Ir26  1  0.000000  0.500000  0.500000  1
  Ir  Ir27  1  0.000000  0.500000  -0.000000  1
  Ir  Ir28  1  0.000000  0.000000  0.500000  1
