# generated using pymatgen
data_CaCr2O4
_symmetry_space_group_name_H-M   'P 1'
_cell_length_a   6.23196217
_cell_length_b   6.23199602
_cell_length_c   18.77749941
_cell_angle_alpha   60.14708870
_cell_angle_beta   60.14902195
_cell_angle_gamma   59.99929952
_symmetry_Int_Tables_number   1
_chemical_formula_structural   CaCr2O4
_chemical_formula_sum   'Ca6 Cr12 O24'
_cell_volume   516.82164882
_cell_formula_units_Z   6
loop_
 _symmetry_equiv_pos_site_id
 _symmetry_equiv_pos_as_xyz
  1  'x, y, z'
loop_
 _atom_site_type_symbol
 _atom_site_label
 _atom_site_symmetry_multiplicity
 _atom_site_fract_x
 _atom_site_fract_y
 _atom_site_fract_z
 _atom_site_occupancy
  Ca  Ca0  1  0.122137  0.122125  0.044541  1
  Ca  Ca1  1  0.123338  0.123354  0.376654  1
  Ca  Ca2  1  0.497281  0.497279  0.002722  1
  Ca  Ca3  1  0.123035  0.123036  0.710293  1
  Ca  Ca4  1  0.879187  0.879179  0.287478  1
  Ca  Ca5  1  0.874432  0.874432  0.625574  1
  Cr  Cr6  1  0.997685  0.496532  0.169744  1
  Cr  Cr7  1  0.496571  0.496573  0.169738  1
  Cr  Cr8  1  0.001540  0.500295  0.499296  1
  Cr  Cr9  1  0.496560  0.997659  0.169734  1
  Cr  Cr10  1  0.499559  0.499568  0.333765  1
  Cr  Cr11  1  0.500288  0.500293  0.499295  1
  Cr  Cr12  1  0.011242  0.499123  0.830167  1
  Cr  Cr13  1  0.500278  0.001538  0.499303  1
  Cr  Cr14  1  0.499137  0.011226  0.830165  1
  Cr  Cr15  1  0.503524  0.503520  0.663149  1
  Cr  Cr16  1  0.499146  0.499134  0.830166  1
  Cr  Cr17  1  0.880749  0.880684  0.952642  1
  O  O18  1  0.245390  0.245414  0.102885  1
  O  O19  1  0.264880  0.264879  0.235133  1
  O  O20  1  0.245379  0.700552  0.102890  1
  O  O21  1  0.700561  0.245391  0.102887  1
  O  O22  1  0.308554  0.727302  0.245630  1
  O  O23  1  0.267575  0.267559  0.423887  1
  O  O24  1  0.727284  0.308550  0.245638  1
  O  O25  1  0.745148  0.745243  0.088083  1
  O  O26  1  0.267563  0.693207  0.423882  1
  O  O27  1  0.267387  0.267396  0.565951  1
  O  O28  1  0.727260  0.727274  0.245634  1
  O  O29  1  0.693193  0.267547  0.423892  1
  O  O30  1  0.305084  0.732189  0.576853  1
  O  O31  1  0.272810  0.272812  0.753693  1
  O  O32  1  0.732191  0.305091  0.576853  1
  O  O33  1  0.732603  0.732605  0.434058  1
  O  O34  1  0.270896  0.270896  0.895767  1
  O  O35  1  0.272792  0.693281  0.753701  1
  O  O36  1  0.732186  0.732173  0.576859  1
  O  O37  1  0.693275  0.272792  0.753702  1
  O  O38  1  0.263268  0.765236  0.902092  1
  O  O39  1  0.728669  0.728671  0.771323  1
  O  O40  1  0.765212  0.263254  0.902121  1
  O  O41  1  0.765155  0.765131  0.902157  1
