# generated using pymatgen
data_MnHgO3
_symmetry_space_group_name_H-M   'P 1'
_cell_length_a   11.65961762
_cell_length_b   11.65961762
_cell_length_c   11.65961762
_cell_angle_alpha   90.00000000
_cell_angle_beta   90.00000000
_cell_angle_gamma   90.00000000
_symmetry_Int_Tables_number   1
_chemical_formula_structural   MnHgO3
_chemical_formula_sum   'Mn27 Hg27 O81'
_cell_volume   1585.08634101
_cell_formula_units_Z   27
loop_
 _symmetry_equiv_pos_site_id
 _symmetry_equiv_pos_as_xyz
  1  'x, y, z'
loop_
 _atom_site_type_symbol
 _atom_site_label
 _atom_site_symmetry_multiplicity
 _atom_site_fract_x
 _atom_site_fract_y
 _atom_site_fract_z
 _atom_site_occupancy
  Mn  Mn0  1  0.166667  0.166667  0.166667  1
  Mn  Mn1  1  0.166667  0.166667  0.500000  1
  Mn  Mn2  1  0.166667  0.166667  0.833333  1
  Mn  Mn3  1  0.166667  0.500000  0.166667  1
  Mn  Mn4  1  0.166667  0.500000  0.500000  1
  Mn  Mn5  1  0.166667  0.500000  0.833333  1
  Mn  Mn6  1  0.166667  0.833333  0.166667  1
  Mn  Mn7  1  0.166667  0.833333  0.500000  1
  Mn  Mn8  1  0.166667  0.833333  0.833333  1
  Mn  Mn9  1  0.500000  0.166667  0.166667  1
  Mn  Mn10  1  0.500000  0.166667  0.500000  1
  Mn  Mn11  1  0.500000  0.166667  0.833333  1
  Mn  Mn12  1  0.500000  0.500000  0.166667  1
  Mn  Mn13  1  0.500000  0.500000  0.500000  1
  Mn  Mn14  1  0.500000  0.500000  0.833333  1
  Mn  Mn15  1  0.500000  0.833333  0.166667  1
  Mn  Mn16  1  0.500000  0.833333  0.500000  1
  Mn  Mn17  1  0.500000  0.833333  0.833333  1
  Mn  Mn18  1  0.833333  0.166667  0.166667  1
  Mn  Mn19  1  0.833333  0.166667  0.500000  1
  Mn  Mn20  1  0.833333  0.166667  0.833333  1
  Mn  Mn21  1  0.833333  0.500000  0.166667  1
  Mn  Mn22  1  0.833333  0.500000  0.500000  1
  Mn  Mn23  1  0.833333  0.500000  0.833333  1
  Mn  Mn24  1  0.833333  0.833333  0.166667  1
  Mn  Mn25  1  0.833333  0.833333  0.500000  1
  Mn  Mn26  1  0.833333  0.833333  0.833333  1
  Hg  Hg27  1  -0.000000  -0.000000  0.000000  1
  Hg  Hg28  1  0.000000  -0.000000  0.333333  1
  Hg  Hg29  1  0.000000  -0.000000  0.666667  1
  Hg  Hg30  1  0.000000  0.333333  0.000000  1
  Hg  Hg31  1  -0.000000  0.333333  0.333333  1
  Hg  Hg32  1  0.000000  0.333333  0.666667  1
  Hg  Hg33  1  -0.000000  0.666667  -0.000000  1
  Hg  Hg34  1  -0.000000  0.666667  0.333333  1
  Hg  Hg35  1  -0.000000  0.666667  0.666667  1
  Hg  Hg36  1  0.333333  -0.000000  0.000000  1
  Hg  Hg37  1  0.333333  -0.000000  0.333333  1
  Hg  Hg38  1  0.333333  -0.000000  0.666667  1
  Hg  Hg39  1  0.333333  0.333333  -0.000000  1
  Hg  Hg40  1  0.333333  0.333333  0.333333  1
  Hg  Hg41  1  0.333333  0.333333  0.666667  1
  Hg  Hg42  1  0.333333  0.666667  -0.000000  1
  Hg  Hg43  1  0.333333  0.666667  0.333333  1
  Hg  Hg44  1  0.333333  0.666667  0.666667  1
  Hg  Hg45  1  0.666667  -0.000000  0.000000  1
  Hg  Hg46  1  0.666667  -0.000000  0.333333  1
  Hg  Hg47  1  0.666667  -0.000000  0.666667  1
  Hg  Hg48  1  0.666667  0.333333  0.000000  1
  Hg  Hg49  1  0.666667  0.333333  0.333333  1
  Hg  Hg50  1  0.666667  0.333333  0.666667  1
  Hg  Hg51  1  0.666667  0.666667  -0.000000  1
  Hg  Hg52  1  0.666667  0.666667  0.333333  1
  Hg  Hg53  1  0.666667  0.666667  0.666667  1
  O  O54  1  0.166667  0.166667  0.000000  1
  O  O55  1  0.166667  0.166667  0.333333  1
  O  O56  1  0.166667  0.166667  0.666667  1
  O  O57  1  0.166667  0.500000  -0.000000  1
  O  O58  1  0.166667  0.500000  0.333333  1
  O  O59  1  0.166667  0.500000  0.666667  1
  O  O60  1  0.166667  0.833333  0.000000  1
  O  O61  1  0.166667  0.833333  0.333333  1
  O  O62  1  0.166667  0.833333  0.666667  1
  O  O63  1  0.500000  0.166667  0.000000  1
  O  O64  1  0.500000  0.166667  0.333333  1
  O  O65  1  0.500000  0.166667  0.666667  1
  O  O66  1  0.500000  0.500000  -0.000000  1
  O  O67  1  0.500000  0.500000  0.333333  1
  O  O68  1  0.500000  0.500000  0.666667  1
  O  O69  1  0.500000  0.833333  -0.000000  1
  O  O70  1  0.500000  0.833333  0.333333  1
  O  O71  1  0.500000  0.833333  0.666667  1
  O  O72  1  0.833333  0.166667  0.000000  1
  O  O73  1  0.833333  0.166667  0.333333  1
  O  O74  1  0.833333  0.166667  0.666667  1
  O  O75  1  0.833333  0.500000  -0.000000  1
  O  O76  1  0.833333  0.500000  0.333333  1
  O  O77  1  0.833333  0.500000  0.666667  1
  O  O78  1  0.833333  0.833333  0.000000  1
  O  O79  1  0.833333  0.833333  0.333333  1
  O  O80  1  0.833333  0.833333  0.666667  1
  O  O81  1  0.166667  0.000000  0.166667  1
  O  O82  1  0.166667  0.000000  0.500000  1
  O  O83  1  0.166667  0.000000  0.833333  1
  O  O84  1  0.166667  0.333333  0.166667  1
  O  O85  1  0.166667  0.333333  0.500000  1
  O  O86  1  0.166667  0.333333  0.833333  1
  O  O87  1  0.166667  0.666667  0.166667  1
  O  O88  1  0.166667  0.666667  0.500000  1
  O  O89  1  0.166667  0.666667  0.833333  1
  O  O90  1  0.500000  0.000000  0.166667  1
  O  O91  1  0.500000  0.000000  0.500000  1
  O  O92  1  0.500000  0.000000  0.833333  1
  O  O93  1  0.500000  0.333333  0.166667  1
  O  O94  1  0.500000  0.333333  0.500000  1
  O  O95  1  0.500000  0.333333  0.833333  1
  O  O96  1  0.500000  0.666667  0.166667  1
  O  O97  1  0.500000  0.666667  0.500000  1
  O  O98  1  0.500000  0.666667  0.833333  1
  O  O99  1  0.833333  0.000000  0.166667  1
  O  O100  1  0.833333  0.000000  0.500000  1
  O  O101  1  0.833333  0.000000  0.833333  1
  O  O102  1  0.833333  0.333333  0.166667  1
  O  O103  1  0.833333  0.333333  0.500000  1
  O  O104  1  0.833333  0.333333  0.833333  1
  O  O105  1  0.833333  0.666667  0.166667  1
  O  O106  1  0.833333  0.666667  0.500000  1
  O  O107  1  0.833333  0.666667  0.833333  1
  O  O108  1  0.000000  0.166667  0.166667  1
  O  O109  1  0.000000  0.166667  0.500000  1
  O  O110  1  0.000000  0.166667  0.833333  1
  O  O111  1  0.000000  0.500000  0.166667  1
  O  O112  1  0.000000  0.500000  0.500000  1
  O  O113  1  0.000000  0.500000  0.833333  1
  O  O114  1  0.000000  0.833333  0.166667  1
  O  O115  1  0.000000  0.833333  0.500000  1
  O  O116  1  0.000000  0.833333  0.833333  1
  O  O117  1  0.333333  0.166667  0.166667  1
  O  O118  1  0.333333  0.166667  0.500000  1
  O  O119  1  0.333333  0.166667  0.833333  1
  O  O120  1  0.333333  0.500000  0.166667  1
  O  O121  1  0.333333  0.500000  0.500000  1
  O  O122  1  0.333333  0.500000  0.833333  1
  O  O123  1  0.333333  0.833333  0.166667  1
  O  O124  1  0.333333  0.833333  0.500000  1
  O  O125  1  0.333333  0.833333  0.833333  1
  O  O126  1  0.666667  0.166667  0.166667  1
  O  O127  1  0.666667  0.166667  0.500000  1
  O  O128  1  0.666667  0.166667  0.833333  1
  O  O129  1  0.666667  0.500000  0.166667  1
  O  O130  1  0.666667  0.500000  0.500000  1
  O  O131  1  0.666667  0.500000  0.833333  1
  O  O132  1  0.666667  0.833333  0.166667  1
  O  O133  1  0.666667  0.833333  0.500000  1
  O  O134  1  0.666667  0.833333  0.833333  1
