# generated using pymatgen
data_CaTi2O4
_symmetry_space_group_name_H-M   'P 1'
_cell_length_a   6.18558244
_cell_length_b   6.18364948
_cell_length_c   19.11474257
_cell_angle_alpha   60.94263961
_cell_angle_beta   60.92902365
_cell_angle_gamma   59.95411918
_symmetry_Int_Tables_number   1
_chemical_formula_structural   CaTi2O4
_chemical_formula_sum   'Ca6 Ti12 O24'
_cell_volume   523.99173060
_cell_formula_units_Z   6
loop_
 _symmetry_equiv_pos_site_id
 _symmetry_equiv_pos_as_xyz
  1  'x, y, z'
loop_
 _atom_site_type_symbol
 _atom_site_label
 _atom_site_symmetry_multiplicity
 _atom_site_fract_x
 _atom_site_fract_y
 _atom_site_fract_z
 _atom_site_occupancy
  Ca  Ca0  1  0.125671  0.125730  0.040956  1
  Ca  Ca1  1  0.127150  0.127166  0.372845  1
  Ca  Ca2  1  0.495644  0.495845  0.337652  1
  Ca  Ca3  1  0.128226  0.126551  0.705652  1
  Ca  Ca4  1  0.499277  0.499406  0.000684  1
  Ca  Ca5  1  0.876120  0.875730  0.624041  1
  Ti  Ti6  1  0.507391  0.507420  0.165047  1
  Ti  Ti7  1  0.507595  0.989576  0.165099  1
  Ti  Ti8  1  0.503683  0.503621  0.501864  1
  Ti  Ti9  1  0.989943  0.507465  0.165079  1
  Ti  Ti10  1  0.503872  0.987061  0.501738  1
  Ti  Ti11  1  0.497229  0.497084  0.669339  1
  Ti  Ti12  1  0.880230  0.880355  0.286396  1
  Ti  Ti13  1  0.502671  0.501766  0.829434  1
  Ti  Ti14  1  0.987103  0.503649  0.501850  1
  Ti  Ti15  1  0.501569  0.010456  0.828823  1
  Ti  Ti16  1  0.007568  0.501840  0.829273  1
  Ti  Ti17  1  0.883096  0.882141  0.950522  1
  O  O18  1  0.249600  0.249529  0.100120  1
  O  O19  1  0.267521  0.267362  0.232558  1
  O  O20  1  0.249696  0.700601  0.099994  1
  O  O21  1  0.700475  0.249585  0.100087  1
  O  O22  1  0.240762  0.240985  0.439065  1
  O  O23  1  0.252984  0.756915  0.244482  1
  O  O24  1  0.265096  0.264964  0.568294  1
  O  O25  1  0.756738  0.253008  0.244518  1
  O  O26  1  0.758986  0.758767  0.074401  1
  O  O27  1  0.241016  0.700996  0.439023  1
  O  O28  1  0.701014  0.241078  0.439049  1
  O  O29  1  0.756662  0.756895  0.244506  1
  O  O30  1  0.267730  0.269918  0.753830  1
  O  O31  1  0.303334  0.725311  0.582080  1
  O  O32  1  0.724984  0.303169  0.582295  1
  O  O33  1  0.269364  0.269222  0.897181  1
  O  O34  1  0.753331  0.753371  0.413273  1
  O  O35  1  0.269600  0.698941  0.753999  1
  O  O36  1  0.700577  0.270244  0.753777  1
  O  O37  1  0.725186  0.725381  0.582092  1
  O  O38  1  0.256375  0.763876  0.904868  1
  O  O39  1  0.764827  0.255649  0.904952  1
  O  O40  1  0.734891  0.737537  0.764449  1
  O  O41  1  0.765214  0.763835  0.904810  1
