# generated using pymatgen
data_ErAgTe2
_symmetry_space_group_name_H-M   'P 1'
_cell_length_a   4.48962831
_cell_length_b   4.48965023
_cell_length_c   7.29218870
_cell_angle_alpha   89.99918897
_cell_angle_beta   90.00005208
_cell_angle_gamma   119.99952715
_symmetry_Int_Tables_number   1
_chemical_formula_structural   ErAgTe2
_chemical_formula_sum   'Er1 Ag1 Te2'
_cell_volume   127.29563029
_cell_formula_units_Z   1
loop_
 _symmetry_equiv_pos_site_id
 _symmetry_equiv_pos_as_xyz
  1  'x, y, z'
loop_
 _atom_site_type_symbol
 _atom_site_label
 _atom_site_symmetry_multiplicity
 _atom_site_fract_x
 _atom_site_fract_y
 _atom_site_fract_z
 _atom_site_occupancy
  Er  Er0  1  0.999996  0.999977  0.986402  1
  Ag  Ag1  1  0.333322  0.666642  0.385119  1
  Te  Te2  1  0.333329  0.666664  0.767744  1
  Te  Te3  1  0.666654  0.333316  0.230735  1
