# generated using pymatgen
data_TeW2Se3
_symmetry_space_group_name_H-M   'P 1'
_cell_length_a   3.37769713
_cell_length_b   3.37777545
_cell_length_c   14.75865712
_cell_angle_alpha   90.00004345
_cell_angle_beta   90.00078821
_cell_angle_gamma   59.99922927
_symmetry_Int_Tables_number   1
_chemical_formula_structural   TeW2Se3
_chemical_formula_sum   'Te1 W2 Se3'
_cell_volume   145.82284999
_cell_formula_units_Z   1
loop_
 _symmetry_equiv_pos_site_id
 _symmetry_equiv_pos_as_xyz
  1  'x, y, z'
loop_
 _atom_site_type_symbol
 _atom_site_label
 _atom_site_symmetry_multiplicity
 _atom_site_fract_x
 _atom_site_fract_y
 _atom_site_fract_z
 _atom_site_occupancy
  Te  Te0  1  0.333385  0.333307  0.628387  1
  W  W1  1  0.666735  0.666632  0.756997  1
  W  W2  1  0.333257  0.333371  0.248649  1
  Se  Se3  1  0.666623  0.666688  0.361442  1
  Se  Se4  1  0.666569  0.666715  0.135955  1
  Se  Se5  1  0.333430  0.333285  0.868569  1
