# generated using pymatgen
data_FeMoO
_symmetry_space_group_name_H-M   'P 1'
_cell_length_a   2.90528289
_cell_length_b   2.91678560
_cell_length_c   5.09511695
_cell_angle_alpha   90.00000000
_cell_angle_beta   90.14373289
_cell_angle_gamma   59.86894274
_symmetry_Int_Tables_number   1
_chemical_formula_structural   FeMoO
_chemical_formula_sum   'Fe1 Mo1 O1'
_cell_volume   37.34228084
_cell_formula_units_Z   1
loop_
 _symmetry_equiv_pos_site_id
 _symmetry_equiv_pos_as_xyz
  1  'x, y, z'
loop_
 _atom_site_type_symbol
 _atom_site_label
 _atom_site_symmetry_multiplicity
 _atom_site_fract_x
 _atom_site_fract_y
 _atom_site_fract_z
 _atom_site_occupancy
  Fe  Fe0  1  0.335227  0.332386  0.790765  1
  Mo  Mo1  1  0.664718  0.667641  0.215252  1
  O  O2  1  0.000055  -0.000027  0.493984  1
