# generated using pymatgen
data_Zr10Al6O
_symmetry_space_group_name_H-M   'P 1'
_cell_length_a   5.64609349
_cell_length_b   14.27214366
_cell_length_c   14.27185729
_cell_angle_alpha   59.99933418
_cell_angle_beta   90.00450210
_cell_angle_gamma   90.00000000
_symmetry_Int_Tables_number   1
_chemical_formula_structural   Zr10Al6O
_chemical_formula_sum   'Zr30 Al18 O3'
_cell_volume   995.96822625
_cell_formula_units_Z   3
loop_
 _symmetry_equiv_pos_site_id
 _symmetry_equiv_pos_as_xyz
  1  'x, y, z'
loop_
 _atom_site_type_symbol
 _atom_site_label
 _atom_site_symmetry_multiplicity
 _atom_site_fract_x
 _atom_site_fract_y
 _atom_site_fract_z
 _atom_site_occupancy
  Zr  Zr0  1  0.494706  0.322961  0.660808  1
  Zr  Zr1  1  0.494712  0.660790  0.016214  1
  Zr  Zr2  1  0.494729  0.016292  0.322933  1
  Zr  Zr3  1  0.494729  0.660775  0.322933  1
  Zr  Zr4  1  0.494706  0.016231  0.660808  1
  Zr  Zr5  1  0.494712  0.322996  0.016214  1
  Zr  Zr6  1  0.994855  0.674599  0.341572  1
  Zr  Zr7  1  0.994857  0.341556  0.983826  1
  Zr  Zr8  1  0.994835  0.983856  0.674617  1
  Zr  Zr9  1  0.994835  0.341526  0.674617  1
  Zr  Zr10  1  0.994855  0.983829  0.341572  1
  Zr  Zr11  1  0.994857  0.674618  0.983826  1
  Zr  Zr12  1  0.260768  0.078532  0.842935  1
  Zr  Zr13  1  0.260752  0.842928  0.078501  1
  Zr  Zr14  1  0.260752  0.078571  0.078501  1
  Zr  Zr15  1  0.753576  0.922729  0.154542  1
  Zr  Zr16  1  0.753547  0.154562  0.922710  1
  Zr  Zr17  1  0.753547  0.922728  0.922710  1
  Zr  Zr18  1  0.245740  0.411385  0.177230  1
  Zr  Zr19  1  0.245715  0.177263  0.411387  1
  Zr  Zr20  1  0.245715  0.411350  0.411387  1
  Zr  Zr21  1  0.742156  0.588690  0.822620  1
  Zr  Zr22  1  0.742133  0.822606  0.588731  1
  Zr  Zr23  1  0.742133  0.588663  0.588731  1
  Zr  Zr24  1  0.228571  0.743930  0.512140  1
  Zr  Zr25  1  0.228534  0.512083  0.743991  1
  Zr  Zr26  1  0.228534  0.743926  0.743991  1
  Zr  Zr27  1  0.730017  0.255717  0.488565  1
  Zr  Zr28  1  0.730021  0.488558  0.255704  1
  Zr  Zr29  1  0.730021  0.255738  0.255704  1
  Al  Al30  1  0.276774  0.867318  0.265364  1
  Al  Al31  1  0.276680  0.265452  0.867275  1
  Al  Al32  1  0.276680  0.867273  0.867275  1
  Al  Al33  1  0.786291  0.132487  0.735027  1
  Al  Al34  1  0.786322  0.735038  0.132419  1
  Al  Al35  1  0.786322  0.132543  0.132419  1
  Al  Al36  1  0.198026  0.200603  0.598794  1
  Al  Al37  1  0.197997  0.598743  0.200572  1
  Al  Al38  1  0.197997  0.200685  0.200572  1
  Al  Al39  1  0.697658  0.799722  0.400556  1
  Al  Al40  1  0.697716  0.400483  0.799770  1
  Al  Al41  1  0.697716  0.799748  0.799770  1
  Al  Al42  1  0.253341  0.533619  0.932761  1
  Al  Al43  1  0.253284  0.932727  0.533699  1
  Al  Al44  1  0.253284  0.533574  0.533699  1
  Al  Al45  1  0.753304  0.466140  0.067721  1
  Al  Al46  1  0.753316  0.067796  0.466149  1
  Al  Al47  1  0.753316  0.466055  0.466149  1
  O  O48  1  0.484863  0.333317  0.333365  1
  O  O49  1  0.985165  0.666712  0.666576  1
  O  O50  1  0.508327  0.999976  0.000048  1
