# generated using pymatgen
data_Ca(AgO2)2
_symmetry_space_group_name_H-M   'P 1'
_cell_length_a   6.64910578
_cell_length_b   6.64769903
_cell_length_c   19.81295523
_cell_angle_alpha   59.90146105
_cell_angle_beta   59.89419743
_cell_angle_gamma   59.94169860
_symmetry_Int_Tables_number   1
_chemical_formula_structural   Ca(AgO2)2
_chemical_formula_sum   'Ca6 Ag12 O24'
_cell_volume   618.02394914
_cell_formula_units_Z   6
loop_
 _symmetry_equiv_pos_site_id
 _symmetry_equiv_pos_as_xyz
  1  'x, y, z'
loop_
 _atom_site_type_symbol
 _atom_site_label
 _atom_site_symmetry_multiplicity
 _atom_site_fract_x
 _atom_site_fract_y
 _atom_site_fract_z
 _atom_site_occupancy
  Ca  Ca0  1  0.121435  0.121443  0.045306  1
  Ca  Ca1  1  0.122097  0.121164  0.378431  1
  Ca  Ca2  1  0.500264  0.500274  -0.000243  1
  Ca  Ca3  1  0.117746  0.117463  0.715780  1
  Ca  Ca4  1  0.880728  0.880913  0.285742  1
  Ca  Ca5  1  0.873374  0.874247  0.626166  1
  Ag  Ag6  1  0.002721  0.499480  0.166054  1
  Ag  Ag7  1  0.499575  0.499620  0.166135  1
  Ag  Ag8  1  0.996345  0.500383  0.501029  1
  Ag  Ag9  1  0.499468  0.002665  0.166068  1
  Ag  Ag10  1  0.499196  0.499174  0.334208  1
  Ag  Ag11  1  0.500193  0.500066  0.501111  1
  Ag  Ag12  1  0.004544  0.497117  0.833734  1
  Ag  Ag13  1  0.500417  0.996387  0.501033  1
  Ag  Ag14  1  0.497110  0.004517  0.833740  1
  Ag  Ag15  1  0.500522  0.500631  0.665960  1
  Ag  Ag16  1  0.497229  0.497245  0.833665  1
  Ag  Ag17  1  0.875404  0.875424  0.957920  1
  O  O18  1  0.250547  0.250317  0.096949  1
  O  O19  1  0.260097  0.260039  0.239890  1
  O  O20  1  0.250557  0.708248  0.097232  1
  O  O21  1  0.708200  0.250400  0.097275  1
  O  O22  1  0.311294  0.734848  0.239444  1
  O  O23  1  0.264890  0.262852  0.423427  1
  O  O24  1  0.734627  0.311454  0.239483  1
  O  O25  1  0.741723  0.741720  0.091615  1
  O  O26  1  0.264329  0.703309  0.422982  1
  O  O27  1  0.262441  0.260400  0.571207  1
  O  O28  1  0.734893  0.735058  0.239590  1
  O  O29  1  0.702609  0.263041  0.423398  1
  O  O30  1  0.289671  0.737841  0.578557  1
  O  O31  1  0.266388  0.266531  0.754682  1
  O  O32  1  0.736690  0.289052  0.578894  1
  O  O33  1  0.739602  0.741663  0.426765  1
  O  O34  1  0.260764  0.260688  0.905971  1
  O  O35  1  0.267037  0.702661  0.754777  1
  O  O36  1  0.736256  0.738143  0.578454  1
  O  O37  1  0.702469  0.267215  0.754766  1
  O  O38  1  0.288184  0.752333  0.901952  1
  O  O39  1  0.733285  0.733370  0.766680  1
  O  O40  1  0.752409  0.288071  0.901982  1
  O  O41  1  0.752670  0.752535  0.902195  1
