# generated using pymatgen
data_Ca3(InGa2)2
_symmetry_space_group_name_H-M   'P 1'
_cell_length_a   4.67975518
_cell_length_b   4.67719885
_cell_length_c   22.73108054
_cell_angle_alpha   90.00000000
_cell_angle_beta   89.96251171
_cell_angle_gamma   60.01806261
_symmetry_Int_Tables_number   1
_chemical_formula_structural   Ca3(InGa2)2
_chemical_formula_sum   'Ca6 In4 Ga8'
_cell_volume   430.96159928
_cell_formula_units_Z   2
loop_
 _symmetry_equiv_pos_site_id
 _symmetry_equiv_pos_as_xyz
  1  'x, y, z'
loop_
 _atom_site_type_symbol
 _atom_site_label
 _atom_site_symmetry_multiplicity
 _atom_site_fract_x
 _atom_site_fract_y
 _atom_site_fract_z
 _atom_site_occupancy
  Ca  Ca0  1  0.999058  0.000471  0.255394  1
  Ca  Ca1  1  0.999289  0.000356  0.587148  1
  Ca  Ca2  1  0.000125  -0.000062  0.919556  1
  Ca  Ca3  1  0.999602  0.000199  0.078674  1
  Ca  Ca4  1  0.999464  0.000268  0.415924  1
  Ca  Ca5  1  0.001087  0.999456  0.749255  1
  In  In6  1  0.667430  0.666285  0.185068  1
  In  In7  1  0.666584  0.666708  0.513780  1
  In  In8  1  0.666821  0.666589  0.846813  1
  In  In9  1  0.333295  0.333352  0.148674  1
  Ga  Ga10  1  0.333096  0.333452  0.481230  1
  Ga  Ga11  1  0.333804  0.333098  0.814376  1
  Ga  Ga12  1  0.333672  0.333164  0.013678  1
  Ga  Ga13  1  0.333186  0.333407  0.349150  1
  Ga  Ga14  1  0.333302  0.333349  0.682383  1
  Ga  Ga15  1  0.666843  0.666579  0.320449  1
  Ga  Ga16  1  0.666744  0.666628  0.652919  1
  Ga  Ga17  1  0.666597  0.666701  0.985531  1
