# generated using pymatgen
data_Mo(WSe3)2
_symmetry_space_group_name_H-M   'P 1'
_cell_length_a   3.32396129
_cell_length_b   3.32395088
_cell_length_c   30.71338240
_cell_angle_alpha   89.99999227
_cell_angle_beta   90.00000000
_cell_angle_gamma   120.00010374
_symmetry_Int_Tables_number   1
_chemical_formula_structural   Mo(WSe3)2
_chemical_formula_sum   'Mo1 W2 Se6'
_cell_volume   293.87888196
_cell_formula_units_Z   1
loop_
 _symmetry_equiv_pos_site_id
 _symmetry_equiv_pos_as_xyz
  1  'x, y, z'
loop_
 _atom_site_type_symbol
 _atom_site_label
 _atom_site_symmetry_multiplicity
 _atom_site_fract_x
 _atom_site_fract_y
 _atom_site_fract_z
 _atom_site_occupancy
  Mo  Mo0  1  0.333310  0.666620  0.115631  1
  W  W1  1  0.333312  0.666624  0.578336  1
  W  W2  1  0.666690  0.333380  0.346999  1
  Se  Se3  1  0.333353  0.666706  0.401718  1
  Se  Se4  1  0.666649  0.333296  0.061169  1
  Se  Se5  1  0.666648  0.333295  0.523578  1
  Se  Se6  1  0.666638  0.333275  0.170111  1
  Se  Se7  1  0.666649  0.333298  0.633070  1
  Se  Se8  1  0.333352  0.666706  0.292231  1
