# generated using pymatgen
data_Er3(SbPd2)4
_symmetry_space_group_name_H-M   'P 1'
_cell_length_a   9.37386410
_cell_length_b   9.37386410
_cell_length_c   9.37386410
_cell_angle_alpha   60.00000000
_cell_angle_beta   60.00000000
_cell_angle_gamma   60.00000000
_symmetry_Int_Tables_number   1
_chemical_formula_structural   Er3(SbPd2)4
_chemical_formula_sum   'Er6 Sb8 Pd16'
_cell_volume   582.42627727
_cell_formula_units_Z   2
loop_
 _symmetry_equiv_pos_site_id
 _symmetry_equiv_pos_as_xyz
  1  'x, y, z'
loop_
 _atom_site_type_symbol
 _atom_site_label
 _atom_site_symmetry_multiplicity
 _atom_site_fract_x
 _atom_site_fract_y
 _atom_site_fract_z
 _atom_site_occupancy
  Er  Er0  1  0.724354  0.275646  0.275646  1
  Er  Er1  1  0.724354  0.275646  0.724354  1
  Er  Er2  1  0.724354  0.724354  0.275646  1
  Er  Er3  1  0.275646  0.724354  0.724354  1
  Er  Er4  1  0.275646  0.724354  0.275646  1
  Er  Er5  1  0.275646  0.275646  0.724354  1
  Sb  Sb6  1  0.500000  -0.000000  -0.000000  1
  Sb  Sb7  1  0.500000  -0.000000  0.500000  1
  Sb  Sb8  1  0.500000  0.500000  -0.000000  1
  Sb  Sb9  1  -0.000000  0.500000  0.500000  1
  Sb  Sb10  1  0.000000  0.500000  -0.000000  1
  Sb  Sb11  1  -0.000000  -0.000000  0.500000  1
  Sb  Sb12  1  0.500000  0.500000  0.500000  1
  Sb  Sb13  1  0.000000  -0.000000  -0.000000  1
  Pd  Pd14  1  0.643766  0.118745  0.118745  1
  Pd  Pd15  1  0.118745  0.643766  0.118745  1
  Pd  Pd16  1  0.118745  0.118745  0.643766  1
  Pd  Pd17  1  0.118745  0.118745  0.118745  1
  Pd  Pd18  1  0.356234  0.881255  0.881255  1
  Pd  Pd19  1  0.881255  0.356234  0.881255  1
  Pd  Pd20  1  0.881255  0.881255  0.356234  1
  Pd  Pd21  1  0.881255  0.881255  0.881255  1
  Pd  Pd22  1  0.998677  0.333774  0.333774  1
  Pd  Pd23  1  0.333774  0.998677  0.333774  1
  Pd  Pd24  1  0.333774  0.333774  0.998677  1
  Pd  Pd25  1  0.333774  0.333774  0.333774  1
  Pd  Pd26  1  0.001323  0.666226  0.666226  1
  Pd  Pd27  1  0.666226  0.001323  0.666226  1
  Pd  Pd28  1  0.666226  0.666226  0.001323  1
  Pd  Pd29  1  0.666226  0.666226  0.666226  1
