# generated using pymatgen
data_Zn(AgO2)2
_symmetry_space_group_name_H-M   'P 1'
_cell_length_a   6.39627928
_cell_length_b   6.39614162
_cell_length_c   19.03159007
_cell_angle_alpha   59.77062457
_cell_angle_beta   59.77001724
_cell_angle_gamma   59.92980941
_symmetry_Int_Tables_number   1
_chemical_formula_structural   Zn(AgO2)2
_chemical_formula_sum   'Zn6 Ag12 O24'
_cell_volume   548.35248791
_cell_formula_units_Z   6
loop_
 _symmetry_equiv_pos_site_id
 _symmetry_equiv_pos_as_xyz
  1  'x, y, z'
loop_
 _atom_site_type_symbol
 _atom_site_label
 _atom_site_symmetry_multiplicity
 _atom_site_fract_x
 _atom_site_fract_y
 _atom_site_fract_z
 _atom_site_occupancy
  Zn  Zn0  1  0.120958  0.120994  0.045747  1
  Zn  Zn1  1  0.123671  0.123681  0.376257  1
  Zn  Zn2  1  0.498097  0.498044  0.002003  1
  Zn  Zn3  1  0.122208  0.122206  0.711094  1
  Zn  Zn4  1  0.876656  0.876635  0.289932  1
  Zn  Zn5  1  0.877267  0.877278  0.622824  1
  Ag  Ag6  1  0.005245  0.497682  0.166502  1
  Ag  Ag7  1  0.497834  0.497841  0.166470  1
  Ag  Ag8  1  0.000127  0.500209  0.499863  1
  Ag  Ag9  1  0.497696  0.005186  0.166511  1
  Ag  Ag10  1  0.499898  0.499963  0.333226  1
  Ag  Ag11  1  0.500201  0.500195  0.499844  1
  Ag  Ag12  1  0.996551  0.501017  0.833716  1
  Ag  Ag13  1  0.500209  0.000137  0.499863  1
  Ag  Ag14  1  0.501020  0.996545  0.833712  1
  Ag  Ag15  1  0.500753  0.500768  0.665973  1
  Ag  Ag16  1  0.501042  0.501052  0.833777  1
  Ag  Ag17  1  0.875192  0.875203  0.958065  1
  O  O18  1  0.260809  0.261127  0.082419  1
  O  O19  1  0.253831  0.253995  0.245993  1
  O  O20  1  0.261197  0.730797  0.082317  1
  O  O21  1  0.730863  0.261376  0.082268  1
  O  O22  1  0.263643  0.747905  0.246784  1
  O  O23  1  0.252628  0.252571  0.418290  1
  O  O24  1  0.748068  0.263727  0.246748  1
  O  O25  1  0.736401  0.736206  0.097191  1
  O  O26  1  0.252657  0.739347  0.418365  1
  O  O27  1  0.251941  0.251961  0.581323  1
  O  O28  1  0.748262  0.747942  0.246506  1
  O  O29  1  0.739351  0.252636  0.418368  1
  O  O30  1  0.261877  0.747474  0.581142  1
  O  O31  1  0.250950  0.250876  0.756832  1
  O  O32  1  0.747460  0.261893  0.581133  1
  O  O33  1  0.747134  0.747120  0.419659  1
  O  O34  1  0.249190  0.249113  0.917297  1
  O  O35  1  0.251055  0.727401  0.756794  1
  O  O36  1  0.747576  0.747619  0.581233  1
  O  O37  1  0.727381  0.251019  0.756798  1
  O  O38  1  0.299452  0.736096  0.909525  1
  O  O39  1  0.751632  0.751688  0.748596  1
  O  O40  1  0.736049  0.299433  0.909535  1
  O  O41  1  0.735965  0.736043  0.909505  1
