# generated using pymatgen
data_TeWSe
_symmetry_space_group_name_H-M   'P 1'
_cell_length_a   3.43787492
_cell_length_b   3.43785863
_cell_length_c   39.19287489
_cell_angle_alpha   89.99987028
_cell_angle_beta   90.00000000
_cell_angle_gamma   120.00015679
_symmetry_Int_Tables_number   1
_chemical_formula_structural   TeWSe
_chemical_formula_sum   'Te4 W4 Se4'
_cell_volume   401.15771757
_cell_formula_units_Z   4
loop_
 _symmetry_equiv_pos_site_id
 _symmetry_equiv_pos_as_xyz
  1  'x, y, z'
loop_
 _atom_site_type_symbol
 _atom_site_label
 _atom_site_symmetry_multiplicity
 _atom_site_fract_x
 _atom_site_fract_y
 _atom_site_fract_z
 _atom_site_occupancy
  Te  Te0  1  0.333361  0.666722  0.329446  1
  Te  Te1  1  0.333351  0.666704  0.705173  1
  Te  Te2  1  0.333359  0.666719  0.234150  1
  Te  Te3  1  0.333352  0.666705  0.609877  1
  W  W4  1  0.333308  0.666616  0.093915  1
  W  W5  1  0.333311  0.666623  0.469664  1
  W  W6  1  0.666691  0.333382  0.281799  1
  W  W7  1  0.666689  0.333378  0.657535  1
  Se  Se8  1  0.666643  0.333285  0.051986  1
  Se  Se9  1  0.666646  0.333292  0.427719  1
  Se  Se10  1  0.666643  0.333286  0.135872  1
  Se  Se11  1  0.666646  0.333290  0.511610  1
