# generated using pymatgen
data_Nb3AlCr8
_symmetry_space_group_name_H-M   'P 1'
_cell_length_a   4.87326638
_cell_length_b   4.87326638
_cell_length_c   8.00431919
_cell_angle_alpha   90.01495311
_cell_angle_beta   89.98504689
_cell_angle_gamma   120.03963658
_symmetry_Int_Tables_number   1
_chemical_formula_structural   Nb3AlCr8
_chemical_formula_sum   'Nb3 Al1 Cr8'
_cell_volume   164.55902862
_cell_formula_units_Z   1
loop_
 _symmetry_equiv_pos_site_id
 _symmetry_equiv_pos_as_xyz
  1  'x, y, z'
loop_
 _atom_site_type_symbol
 _atom_site_label
 _atom_site_symmetry_multiplicity
 _atom_site_fract_x
 _atom_site_fract_y
 _atom_site_fract_z
 _atom_site_occupancy
  Nb  Nb0  1  0.333348  0.666652  0.442928  1
  Nb  Nb1  1  0.333379  0.666621  0.060400  1
  Nb  Nb2  1  0.666618  0.333382  0.936114  1
  Al  Al3  1  0.666671  0.333329  0.563457  1
  Cr  Cr4  1  0.000054  0.999946  0.499142  1
  Cr  Cr5  1  0.000025  0.999975  0.998871  1
  Cr  Cr6  1  0.168701  0.337494  0.747915  1
  Cr  Cr7  1  0.168763  0.831237  0.747922  1
  Cr  Cr8  1  0.662506  0.831299  0.747915  1
  Cr  Cr9  1  0.829467  0.659050  0.251780  1
  Cr  Cr10  1  0.829517  0.170483  0.251775  1
  Cr  Cr11  1  0.340950  0.170533  0.251780  1
