# generated using pymatgen
data_Ti6Ga16Os7
_symmetry_space_group_name_H-M   'P 1'
_cell_length_a   8.64468775
_cell_length_b   8.64468775
_cell_length_c   8.64468775
_cell_angle_alpha   60.00000000
_cell_angle_beta   60.00000000
_cell_angle_gamma   60.00000000
_symmetry_Int_Tables_number   1
_chemical_formula_structural   Ti6Ga16Os7
_chemical_formula_sum   'Ti6 Ga16 Os7'
_cell_volume   456.80719455
_cell_formula_units_Z   1
loop_
 _symmetry_equiv_pos_site_id
 _symmetry_equiv_pos_as_xyz
  1  'x, y, z'
loop_
 _atom_site_type_symbol
 _atom_site_label
 _atom_site_symmetry_multiplicity
 _atom_site_fract_x
 _atom_site_fract_y
 _atom_site_fract_z
 _atom_site_occupancy
  Ti  Ti0  1  0.728069  0.271931  0.271931  1
  Ti  Ti1  1  0.728069  0.271931  0.728069  1
  Ti  Ti2  1  0.728069  0.728069  0.271931  1
  Ti  Ti3  1  0.271931  0.728069  0.728069  1
  Ti  Ti4  1  0.271931  0.728069  0.271931  1
  Ti  Ti5  1  0.271931  0.271931  0.728069  1
  Ga  Ga6  1  0.628192  0.123936  0.123936  1
  Ga  Ga7  1  0.123936  0.628192  0.123936  1
  Ga  Ga8  1  0.123936  0.123936  0.628192  1
  Ga  Ga9  1  0.123936  0.123936  0.123936  1
  Ga  Ga10  1  0.371808  0.876064  0.876064  1
  Ga  Ga11  1  0.876064  0.371808  0.876064  1
  Ga  Ga12  1  0.876064  0.876064  0.371808  1
  Ga  Ga13  1  0.876064  0.876064  0.876064  1
  Ga  Ga14  1  0.941751  0.352750  0.352750  1
  Ga  Ga15  1  0.352750  0.941751  0.352750  1
  Ga  Ga16  1  0.352750  0.352750  0.941751  1
  Ga  Ga17  1  0.352750  0.352750  0.352750  1
  Ga  Ga18  1  0.058249  0.647250  0.647250  1
  Ga  Ga19  1  0.647250  0.058249  0.647250  1
  Ga  Ga20  1  0.647250  0.647250  0.058249  1
  Ga  Ga21  1  0.647250  0.647250  0.647250  1
  Os  Os22  1  0.000000  0.000000  -0.000000  1
  Os  Os23  1  0.500000  0.000000  -0.000000  1
  Os  Os24  1  0.500000  0.000000  0.500000  1
  Os  Os25  1  0.500000  0.500000  -0.000000  1
  Os  Os26  1  0.000000  0.500000  0.500000  1
  Os  Os27  1  0.000000  0.500000  -0.000000  1
  Os  Os28  1  0.000000  0.000000  0.500000  1
