# generated using pymatgen
data_Cr3GaS6
_symmetry_space_group_name_H-M   'P 1'
_cell_length_a   7.07046796
_cell_length_b   7.07046796
_cell_length_c   17.32027557
_cell_angle_alpha   90.00000000
_cell_angle_beta   90.00000000
_cell_angle_gamma   120.00000000
_symmetry_Int_Tables_number   1
_chemical_formula_structural   Cr3GaS6
_chemical_formula_sum   'Cr12 Ga4 S24'
_cell_volume   749.86269111
_cell_formula_units_Z   4
loop_
 _symmetry_equiv_pos_site_id
 _symmetry_equiv_pos_as_xyz
  1  'x, y, z'
loop_
 _atom_site_type_symbol
 _atom_site_label
 _atom_site_symmetry_multiplicity
 _atom_site_fract_x
 _atom_site_fract_y
 _atom_site_fract_z
 _atom_site_occupancy
  Cr  Cr0  1  0.169627  0.830373  0.209407  1
  Cr  Cr1  1  0.843212  0.156788  0.539820  1
  Cr  Cr2  1  0.504507  0.495493  0.871368  1
  Cr  Cr3  1  0.169627  0.339254  0.209407  1
  Cr  Cr4  1  0.843212  0.686423  0.539820  1
  Cr  Cr5  1  0.504507  0.009015  0.871368  1
  Cr  Cr6  1  0.333333  0.666667  0.040672  1
  Cr  Cr7  1  -0.000000  0.000000  0.383428  1
  Cr  Cr8  1  0.666667  0.333333  0.714161  1
  Cr  Cr9  1  0.660746  0.830373  0.209407  1
  Cr  Cr10  1  0.313577  0.156788  0.539820  1
  Cr  Cr11  1  0.990985  0.495493  0.871368  1
  Ga  Ga12  1  -0.000000  0.000000  0.999686  1
  Ga  Ga13  1  0.666667  0.333333  0.335591  1
  Ga  Ga14  1  0.333333  0.666667  0.664424  1
  Ga  Ga15  1  0.666667  0.333333  0.082760  1
  S  S16  1  0.179589  0.820411  0.955284  1
  S  S17  1  0.846587  0.153413  0.288402  1
  S  S18  1  0.513035  0.486965  0.621587  1
  S  S19  1  0.179589  0.359178  0.955284  1
  S  S20  1  0.846587  0.693172  0.288402  1
  S  S21  1  0.513035  0.026070  0.621587  1
  S  S22  1  0.333333  0.666667  0.801117  1
  S  S23  1  -0.000000  0.000000  0.134898  1
  S  S24  1  0.666667  0.333333  0.468534  1
  S  S25  1  0.640822  0.820411  0.955284  1
  S  S26  1  0.306828  0.153413  0.288402  1
  S  S27  1  0.973930  0.486965  0.621587  1
  S  S28  1  0.820351  0.179649  0.795972  1
  S  S29  1  0.486593  0.513407  0.127774  1
  S  S30  1  0.154461  0.845539  0.460876  1
  S  S31  1  0.820351  0.640701  0.795972  1
  S  S32  1  0.486593  0.973186  0.127774  1
  S  S33  1  0.154461  0.308923  0.460876  1
  S  S34  1  0.666667  0.333333  0.949136  1
  S  S35  1  0.333333  0.666667  0.280998  1
  S  S36  1  -0.000000  -0.000000  0.616460  1
  S  S37  1  0.359299  0.179649  0.795972  1
  S  S38  1  0.026814  0.513407  0.127774  1
  S  S39  1  0.691077  0.845539  0.460876  1
