# generated using pymatgen
data_Ca(AgO2)2
_symmetry_space_group_name_H-M   'P 1'
_cell_length_a   6.63942039
_cell_length_b   6.63949707
_cell_length_c   19.87899501
_cell_angle_alpha   59.93270930
_cell_angle_beta   59.93423430
_cell_angle_gamma   59.97237586
_symmetry_Int_Tables_number   1
_chemical_formula_structural   Ca(AgO2)2
_chemical_formula_sum   'Ca6 Ag12 O24'
_cell_volume   618.89470038
_cell_formula_units_Z   6
loop_
 _symmetry_equiv_pos_site_id
 _symmetry_equiv_pos_as_xyz
  1  'x, y, z'
loop_
 _atom_site_type_symbol
 _atom_site_label
 _atom_site_symmetry_multiplicity
 _atom_site_fract_x
 _atom_site_fract_y
 _atom_site_fract_z
 _atom_site_occupancy
  Ca  Ca0  1  0.108651  0.108666  0.057985  1
  Ca  Ca1  1  0.114483  0.114495  0.385667  1
  Ca  Ca2  1  0.500333  0.500322  0.332986  1
  Ca  Ca3  1  0.104158  0.104175  0.729037  1
  Ca  Ca4  1  0.502682  0.502703  0.997205  1
  Ca  Ca5  1  0.885716  0.885680  0.614532  1
  Ag  Ag6  1  0.499970  0.499963  0.166028  1
  Ag  Ag7  1  0.499917  0.001766  0.166019  1
  Ag  Ag8  1  0.497864  0.497867  0.499895  1
  Ag  Ag9  1  0.001767  0.499905  0.166022  1
  Ag  Ag10  1  0.497866  0.005102  0.499853  1
  Ag  Ag11  1  0.501416  0.501409  0.665244  1
  Ag  Ag12  1  0.882425  0.882397  0.284105  1
  Ag  Ag13  1  0.499021  0.499017  0.833996  1
  Ag  Ag14  1  0.005108  0.497869  0.499851  1
  Ag  Ag15  1  0.498811  -0.000171  0.834129  1
  Ag  Ag16  1  -0.000182  0.498811  0.834136  1
  Ag  Ag17  1  0.879640  0.879647  0.953675  1
  O  O18  1  0.256233  0.256231  0.098175  1
  O  O19  1  0.250755  0.250847  0.249076  1
  O  O20  1  0.256015  0.692727  0.098284  1
  O  O21  1  0.692699  0.256000  0.098302  1
  O  O22  1  0.251633  0.251651  0.433518  1
  O  O23  1  0.305622  0.751911  0.230146  1
  O  O24  1  0.244953  0.245050  0.589043  1
  O  O25  1  0.751910  0.305589  0.230163  1
  O  O26  1  0.749575  0.749497  0.083671  1
  O  O27  1  0.251461  0.696697  0.433372  1
  O  O28  1  0.696686  0.251448  0.433392  1
  O  O29  1  0.751713  0.751698  0.230255  1
  O  O30  1  0.260797  0.260788  0.764503  1
  O  O31  1  0.312263  0.744552  0.566651  1
  O  O32  1  0.744514  0.312254  0.566687  1
  O  O33  1  0.248322  0.248510  0.917881  1
  O  O34  1  0.751244  0.751164  0.414880  1
  O  O35  1  0.261497  0.684216  0.764145  1
  O  O36  1  0.684211  0.261427  0.764184  1
  O  O37  1  0.745025  0.745006  0.566288  1
  O  O38  1  0.297233  0.754168  0.897999  1
  O  O39  1  0.754124  0.297208  0.898026  1
  O  O40  1  0.747683  0.747521  0.752903  1
  O  O41  1  0.754188  0.754215  0.898094  1
