# generated using pymatgen
data_Li3InCl6
_symmetry_space_group_name_H-M   'P 1'
_cell_length_a   7.09856949
_cell_length_b   7.09856974
_cell_length_c   7.09856972
_cell_angle_alpha   59.99999912
_cell_angle_beta   59.99999866
_cell_angle_gamma   59.99999875
_symmetry_Int_Tables_number   1
_chemical_formula_structural   Li3InCl6
_chemical_formula_sum   'Li3 In1 Cl6'
_cell_volume   252.92836379
_cell_formula_units_Z   1
loop_
 _symmetry_equiv_pos_site_id
 _symmetry_equiv_pos_as_xyz
  1  'x, y, z'
loop_
 _atom_site_type_symbol
 _atom_site_label
 _atom_site_symmetry_multiplicity
 _atom_site_fract_x
 _atom_site_fract_y
 _atom_site_fract_z
 _atom_site_occupancy
  Li  Li0  1  0.250000  0.250000  0.250000  1
  Li  Li1  1  0.750000  0.750000  0.750000  1
  Li  Li2  1  0.500000  0.500000  0.500000  1
  In  In3  1  0.000000  -0.000000  -0.000000  1
  Cl  Cl4  1  0.250651  0.749349  0.250651  1
  Cl  Cl5  1  0.749349  0.749349  0.250651  1
  Cl  Cl6  1  0.749349  0.250651  0.749349  1
  Cl  Cl7  1  0.749349  0.250651  0.250651  1
  Cl  Cl8  1  0.250651  0.749349  0.749349  1
  Cl  Cl9  1  0.250651  0.250651  0.749349  1
