# generated using pymatgen
data_Na2B5O11
_symmetry_space_group_name_H-M   'P 1'
_cell_length_a   11.38185583
_cell_length_b   6.46162574
_cell_length_c   11.85632016
_cell_angle_alpha   90.00000000
_cell_angle_beta   90.11080576
_cell_angle_gamma   90.00000000
_symmetry_Int_Tables_number   1
_chemical_formula_structural   Na2B5O11
_chemical_formula_sum   'Na8 B20 O44'
_cell_volume   871.97490492
_cell_formula_units_Z   4
loop_
 _symmetry_equiv_pos_site_id
 _symmetry_equiv_pos_as_xyz
  1  'x, y, z'
loop_
 _atom_site_type_symbol
 _atom_site_label
 _atom_site_symmetry_multiplicity
 _atom_site_fract_x
 _atom_site_fract_y
 _atom_site_fract_z
 _atom_site_occupancy
  Na  Na0  1  0.957506  0.757462  0.233504  1
  Na  Na1  1  0.957506  0.242538  0.733504  1
  Na  Na2  1  0.132000  0.905381  0.538835  1
  Na  Na3  1  0.132000  0.094619  0.038835  1
  Na  Na4  1  0.632435  0.594088  0.453055  1
  Na  Na5  1  0.632435  0.405912  0.953055  1
  Na  Na6  1  0.457812  0.741751  0.757987  1
  Na  Na7  1  0.457812  0.258249  0.257987  1
  B  B8  1  0.700839  0.106974  0.148690  1
  B  B9  1  0.700839  0.893026  0.648690  1
  B  B10  1  0.612676  0.767579  0.215881  1
  B  B11  1  0.612676  0.232421  0.715881  1
  B  B12  1  0.614885  0.866600  0.007509  1
  B  B13  1  0.614885  0.133400  0.507509  1
  B  B14  1  0.749096  0.464560  0.216184  1
  B  B15  1  0.749096  0.535440  0.716184  1
  B  B16  1  0.904493  0.211309  0.204706  1
  B  B17  1  0.904493  0.788691  0.704706  1
  B  B18  1  0.201233  0.606935  0.343053  1
  B  B19  1  0.201233  0.393065  0.843053  1
  B  B20  1  0.404684  0.711625  0.286621  1
  B  B21  1  0.404684  0.288375  0.786621  1
  B  B22  1  0.249135  0.964472  0.275187  1
  B  B23  1  0.249135  0.035528  0.775187  1
  B  B24  1  0.112815  0.267011  0.276320  1
  B  B25  1  0.112815  0.732989  0.776320  1
  B  B26  1  0.115142  0.367764  0.484031  1
  B  B27  1  0.115142  0.632236  0.984031  1
  O  O28  1  0.622579  0.992255  0.225607  1
  O  O29  1  0.622579  0.007744  0.725607  1
  O  O30  1  0.586262  0.728012  0.093565  1
  O  O31  1  0.586262  0.271988  0.593565  1
  O  O32  1  0.667736  0.052806  0.030719  1
  O  O33  1  0.667736  0.947194  0.530719  1
  O  O34  1  0.674621  0.331008  0.162342  1
  O  O35  1  0.674621  0.668992  0.662342  1
  O  O36  1  0.864711  0.405932  0.239931  1
  O  O37  1  0.864711  0.594068  0.739931  1
  O  O38  1  0.827346  0.065728  0.166605  1
  O  O39  1  0.827346  0.934272  0.666605  1
  O  O40  1  0.327676  0.565735  0.324974  1
  O  O41  1  0.327676  0.434265  0.824974  1
  O  O42  1  0.364485  0.905581  0.250713  1
  O  O43  1  0.364485  0.094419  0.750713  1
  O  O44  1  0.174935  0.830847  0.329190  1
  O  O45  1  0.174935  0.169153  0.829190  1
  O  O46  1  0.122769  0.491734  0.266184  1
  O  O47  1  0.122769  0.508266  0.766184  1
  O  O48  1  0.086338  0.228313  0.398528  1
  O  O49  1  0.086338  0.771687  0.898528  1
  O  O50  1  0.168953  0.553195  0.461105  1
  O  O51  1  0.168953  0.446805  0.961105  1
  O  O52  1  0.522172  0.671955  0.286432  1
  O  O53  1  0.522172  0.328045  0.786432  1
  O  O54  1  0.022022  0.170745  0.205728  1
  O  O55  1  0.022022  0.829255  0.705728  1
  O  O56  1  0.723990  0.663068  0.246099  1
  O  O57  1  0.723990  0.336932  0.746099  1
  O  O58  1  0.590347  0.792784  0.902144  1
  O  O59  1  0.590347  0.207216  0.402144  1
  O  O60  1  0.224001  0.163232  0.245940  1
  O  O61  1  0.224001  0.836768  0.745940  1
  O  O62  1  0.089017  0.295505  0.589455  1
  O  O63  1  0.089017  0.704495  0.089455  1
  O  O64  1  0.969622  0.919468  0.417958  1
  O  O65  1  0.969622  0.080532  0.917958  1
  O  O66  1  0.347883  0.998853  0.540911  1
  O  O67  1  0.347883  0.001147  0.040911  1
  O  O68  1  0.851794  0.519899  0.448547  1
  O  O69  1  0.851794  0.480101  0.948547  1
  O  O70  1  0.471488  0.569875  0.574657  1
  O  O71  1  0.471488  0.430125  0.074657  1
