# generated using pymatgen
data_La3(P3Pd10)2
_symmetry_space_group_name_H-M   'P 1'
_cell_length_a   8.79354419
_cell_length_b   8.79354419
_cell_length_c   8.79354419
_cell_angle_alpha   60.00000000
_cell_angle_beta   60.00000000
_cell_angle_gamma   60.00000000
_symmetry_Int_Tables_number   1
_chemical_formula_structural   La3(P3Pd10)2
_chemical_formula_sum   'La3 P6 Pd20'
_cell_volume   480.81372232
_cell_formula_units_Z   1
loop_
 _symmetry_equiv_pos_site_id
 _symmetry_equiv_pos_as_xyz
  1  'x, y, z'
loop_
 _atom_site_type_symbol
 _atom_site_label
 _atom_site_symmetry_multiplicity
 _atom_site_fract_x
 _atom_site_fract_y
 _atom_site_fract_z
 _atom_site_occupancy
  La  La0  1  0.750000  0.750000  0.750000  1
  La  La1  1  0.250000  0.250000  0.250000  1
  La  La2  1  0.000000  -0.000000  -0.000000  1
  P  P3  1  0.736780  0.736780  0.263220  1
  P  P4  1  0.263220  0.263220  0.736780  1
  P  P5  1  0.736780  0.263220  0.736780  1
  P  P6  1  0.263220  0.736780  0.263220  1
  P  P7  1  0.263220  0.736780  0.736780  1
  P  P8  1  0.736780  0.263220  0.263220  1
  Pd  Pd9  1  0.613988  0.613988  0.613988  1
  Pd  Pd10  1  0.386012  0.386012  0.386012  1
  Pd  Pd11  1  0.158037  0.613988  0.613988  1
  Pd  Pd12  1  0.613988  0.158037  0.613988  1
  Pd  Pd13  1  0.841963  0.386012  0.386012  1
  Pd  Pd14  1  0.386012  0.841963  0.386012  1
  Pd  Pd15  1  0.613988  0.613988  0.158037  1
  Pd  Pd16  1  0.386012  0.386012  0.841963  1
  Pd  Pd17  1  0.000000  -0.000000  0.653395  1
  Pd  Pd18  1  -0.000000  0.000000  0.346605  1
  Pd  Pd19  1  0.346605  0.653395  -0.000000  1
  Pd  Pd20  1  0.653395  0.346605  0.000000  1
  Pd  Pd21  1  -0.000000  0.653395  0.000000  1
  Pd  Pd22  1  0.653395  -0.000000  0.346605  1
  Pd  Pd23  1  0.000000  0.346605  -0.000000  1
  Pd  Pd24  1  0.346605  0.000000  0.653395  1
  Pd  Pd25  1  0.653395  0.000000  -0.000000  1
  Pd  Pd26  1  0.346605  -0.000000  0.000000  1
  Pd  Pd27  1  -0.000000  0.653395  0.346605  1
  Pd  Pd28  1  0.000000  0.346605  0.653395  1
