# generated using pymatgen
data_Na(SeO3)2
_symmetry_space_group_name_H-M   'P 1'
_cell_length_a   5.52540361
_cell_length_b   5.85755738
_cell_length_c   11.66398435
_cell_angle_alpha   75.16263750
_cell_angle_beta   90.00000000
_cell_angle_gamma   90.00000000
_symmetry_Int_Tables_number   1
_chemical_formula_structural   Na(SeO3)2
_chemical_formula_sum   'Na2 Se4 O12'
_cell_volume   364.92171803
_cell_formula_units_Z   2
loop_
 _symmetry_equiv_pos_site_id
 _symmetry_equiv_pos_as_xyz
  1  'x, y, z'
loop_
 _atom_site_type_symbol
 _atom_site_label
 _atom_site_symmetry_multiplicity
 _atom_site_fract_x
 _atom_site_fract_y
 _atom_site_fract_z
 _atom_site_occupancy
  Na  Na0  1  0.016642  0.509556  0.494574  1
  Na  Na1  1  0.983358  0.009556  0.994574  1
  Se  Se2  1  0.312676  0.052922  0.285444  1
  Se  Se3  1  0.687324  0.552922  0.785444  1
  Se  Se4  1  0.865280  0.443911  0.221272  1
  Se  Se5  1  0.134720  0.943911  0.721272  1
  O  O6  1  0.240312  0.842536  0.404701  1
  O  O7  1  0.759688  0.342536  0.904701  1
  O  O8  1  0.130921  0.317724  0.306423  1
  O  O9  1  0.869079  0.817724  0.806423  1
  O  O10  1  0.219713  0.000413  0.160656  1
  O  O11  1  0.780287  0.500413  0.660656  1
  O  O12  1  0.744899  0.572160  0.318144  1
  O  O13  1  0.255101  0.072160  0.818144  1
  O  O14  1  0.705203  0.215931  0.197783  1
  O  O15  1  0.294797  0.715931  0.697783  1
  O  O16  1  0.955004  0.612847  0.094004  1
  O  O17  1  0.044996  0.112847  0.594004  1
