# generated using pymatgen
data_Ac2MgTl
_symmetry_space_group_name_H-M   'P 1'
_cell_length_a   5.84101442
_cell_length_b   5.84134540
_cell_length_c   5.84152574
_cell_angle_alpha   59.99497922
_cell_angle_beta   59.99943985
_cell_angle_gamma   59.99724549
_symmetry_Int_Tables_number   1
_chemical_formula_structural   Ac2MgTl
_chemical_formula_sum   'Ac2 Mg1 Tl1'
_cell_volume   140.92404533
_cell_formula_units_Z   1
loop_
 _symmetry_equiv_pos_site_id
 _symmetry_equiv_pos_as_xyz
  1  'x, y, z'
loop_
 _atom_site_type_symbol
 _atom_site_label
 _atom_site_symmetry_multiplicity
 _atom_site_fract_x
 _atom_site_fract_y
 _atom_site_fract_z
 _atom_site_occupancy
  Ac  Ac0  1  0.499995  0.499998  0.500003  1
  Ac  Ac1  1  0.000005  0.000002  0.999998  1
  Mg  Mg2  1  0.250001  0.250001  0.250001  1
  Tl  Tl3  1  0.749999  0.749999  0.749999  1
