# generated using pymatgen
data_K3TmCl6
_symmetry_space_group_name_H-M   'P 1'
_cell_length_a   7.87815223
_cell_length_b   7.87815259
_cell_length_c   7.87815258
_cell_angle_alpha   59.99999881
_cell_angle_beta   59.99999822
_cell_angle_gamma   59.99999832
_symmetry_Int_Tables_number   1
_chemical_formula_structural   K3TmCl6
_chemical_formula_sum   'K3 Tm1 Cl6'
_cell_volume   345.74676990
_cell_formula_units_Z   1
loop_
 _symmetry_equiv_pos_site_id
 _symmetry_equiv_pos_as_xyz
  1  'x, y, z'
loop_
 _atom_site_type_symbol
 _atom_site_label
 _atom_site_symmetry_multiplicity
 _atom_site_fract_x
 _atom_site_fract_y
 _atom_site_fract_z
 _atom_site_occupancy
  K  K0  1  0.250000  0.250000  0.250000  1
  K  K1  1  0.750000  0.750000  0.750000  1
  K  K2  1  0.500000  0.500000  0.500000  1
  Tm  Tm3  1  0.000000  -0.000000  -0.000000  1
  Cl  Cl4  1  0.232806  0.767194  0.232806  1
  Cl  Cl5  1  0.767194  0.767194  0.232806  1
  Cl  Cl6  1  0.767194  0.232806  0.767194  1
  Cl  Cl7  1  0.767194  0.232806  0.232806  1
  Cl  Cl8  1  0.232806  0.767194  0.767194  1
  Cl  Cl9  1  0.232806  0.232806  0.767194  1
