# generated using pymatgen
data_Mn10C3N
_symmetry_space_group_name_H-M   'P 1'
_cell_length_a   2.80889603
_cell_length_b   21.95520363
_cell_length_c   2.80889544
_cell_angle_alpha   90.00000000
_cell_angle_beta   60.00000390
_cell_angle_gamma   90.00000000
_symmetry_Int_Tables_number   1
_chemical_formula_structural   Mn10C3N
_chemical_formula_sum   'Mn10 C3 N1'
_cell_volume   150.01661282
_cell_formula_units_Z   1
loop_
 _symmetry_equiv_pos_site_id
 _symmetry_equiv_pos_as_xyz
  1  'x, y, z'
loop_
 _atom_site_type_symbol
 _atom_site_label
 _atom_site_symmetry_multiplicity
 _atom_site_fract_x
 _atom_site_fract_y
 _atom_site_fract_z
 _atom_site_occupancy
  Mn  Mn0  1  0.333333  0.050867  0.333333  1
  Mn  Mn1  1  0.333333  0.250422  0.333333  1
  Mn  Mn2  1  0.333333  0.450476  0.333333  1
  Mn  Mn3  1  0.333333  0.650590  0.333333  1
  Mn  Mn4  1  0.333333  0.851162  0.333333  1
  Mn  Mn5  1  0.666666  0.149368  0.666667  1
  Mn  Mn6  1  0.666666  0.349695  0.666667  1
  Mn  Mn7  1  0.666666  0.549572  0.666667  1
  Mn  Mn8  1  0.666666  0.749234  0.666667  1
  Mn  Mn9  1  0.666666  0.948903  0.666667  1
  C  C10  1  -0.000000  0.200202  0.000000  1
  C  C11  1  0.000000  0.399988  0.000000  1
  C  C12  1  -0.000000  0.599853  -0.000000  1
  N  N13  1  0.000000  0.799667  0.000000  1
