# generated using pymatgen
data_CuSi2P3
_symmetry_space_group_name_H-M   'P 1'
_cell_length_a   3.73198993
_cell_length_b   3.73198993
_cell_length_c   9.08557233
_cell_angle_alpha   90.06879265
_cell_angle_beta   89.93120735
_cell_angle_gamma   119.77816855
_symmetry_Int_Tables_number   1
_chemical_formula_structural   CuSi2P3
_chemical_formula_sum   'Cu1 Si2 P3'
_cell_volume   109.83225071
_cell_formula_units_Z   1
loop_
 _symmetry_equiv_pos_site_id
 _symmetry_equiv_pos_as_xyz
  1  'x, y, z'
loop_
 _atom_site_type_symbol
 _atom_site_label
 _atom_site_symmetry_multiplicity
 _atom_site_fract_x
 _atom_site_fract_y
 _atom_site_fract_z
 _atom_site_occupancy
  Cu  Cu0  1  0.000439  0.999561  0.736991  1
  Si  Si1  1  0.333686  0.666314  0.083308  1
  Si  Si2  1  0.666637  0.333363  0.432801  1
  P  P3  1  0.999958  0.000042  0.991734  1
  P  P4  1  0.332933  0.667067  0.334680  1
  P  P5  1  0.666346  0.333654  0.670485  1
