# generated using pymatgen
data_ZrCuF6
_symmetry_space_group_name_H-M   'P 1'
_cell_length_a   5.75020320
_cell_length_b   5.75020320
_cell_length_c   5.76158530
_cell_angle_alpha   90.00000000
_cell_angle_beta   60.06532804
_cell_angle_gamma   120.00000000
_symmetry_Int_Tables_number   1
_chemical_formula_structural   ZrCuF6
_chemical_formula_sum   'Zr1 Cu1 F6'
_cell_volume   134.84085997
_cell_formula_units_Z   1
loop_
 _symmetry_equiv_pos_site_id
 _symmetry_equiv_pos_as_xyz
  1  'x, y, z'
loop_
 _atom_site_type_symbol
 _atom_site_label
 _atom_site_symmetry_multiplicity
 _atom_site_fract_x
 _atom_site_fract_y
 _atom_site_fract_z
 _atom_site_occupancy
  Zr  Zr0  1  0.010129  0.505065  0.484806  1
  Cu  Cu1  1  0.010674  0.005337  0.983989  1
  F  F2  1  0.014176  0.260280  0.736387  1
  F  F3  1  0.003333  0.753896  0.736387  1
  F  F4  1  0.509717  0.249437  0.736387  1
  F  F5  1  0.002344  0.253136  0.236814  1
  F  F6  1  0.013978  0.760842  0.236814  1
  F  F7  1  0.510050  0.749208  0.236814  1
