# generated using pymatgen
data_Lu2Ga3Cu
_symmetry_space_group_name_H-M   'P 1'
_cell_length_a   4.33201113
_cell_length_b   4.33204104
_cell_length_c   7.00744927
_cell_angle_alpha   90.00000000
_cell_angle_beta   89.99677399
_cell_angle_gamma   59.99977159
_symmetry_Int_Tables_number   1
_chemical_formula_structural   Lu2Ga3Cu
_chemical_formula_sum   'Lu2 Ga3 Cu1'
_cell_volume   113.88636193
_cell_formula_units_Z   1
loop_
 _symmetry_equiv_pos_site_id
 _symmetry_equiv_pos_as_xyz
  1  'x, y, z'
loop_
 _atom_site_type_symbol
 _atom_site_label
 _atom_site_symmetry_multiplicity
 _atom_site_fract_x
 _atom_site_fract_y
 _atom_site_fract_z
 _atom_site_occupancy
  Lu  Lu0  1  0.000017  0.999991  0.730333  1
  Lu  Lu1  1  0.999958  0.000021  0.260900  1
  Ga  Ga2  1  0.666686  0.666657  0.474862  1
  Ga  Ga3  1  0.666654  0.666673  0.047429  1
  Ga  Ga4  1  0.333329  0.333335  0.948347  1
  Cu  Cu5  1  0.333355  0.333322  0.538129  1
