# generated using pymatgen
data_Mn2NiO14
_symmetry_space_group_name_H-M   'P 1'
_cell_length_a   4.48038913
_cell_length_b   7.63125746
_cell_length_c   7.61992512
_cell_angle_alpha   119.95088929
_cell_angle_beta   89.99999999
_cell_angle_gamma   89.94416233
_symmetry_Int_Tables_number   1
_chemical_formula_structural   Mn2NiO14
_chemical_formula_sum   'Mn2 Ni1 O14'
_cell_volume   225.73952619
_cell_formula_units_Z   1
loop_
 _symmetry_equiv_pos_site_id
 _symmetry_equiv_pos_as_xyz
  1  'x, y, z'
loop_
 _atom_site_type_symbol
 _atom_site_label
 _atom_site_symmetry_multiplicity
 _atom_site_fract_x
 _atom_site_fract_y
 _atom_site_fract_z
 _atom_site_occupancy
  Mn  Mn0  1  0.500507  0.667420  0.333710  1
  Mn  Mn1  1  0.007488  0.332217  0.666108  1
  Ni  Ni2  1  0.746029  0.001873  0.000937  1
  O  O3  1  0.138510  0.668681  0.334340  1
  O  O4  1  0.608690  0.900529  0.450265  1
  O  O5  1  0.611068  0.550947  0.450077  1
  O  O6  1  0.611068  0.550947  0.100870  1
  O  O7  1  0.646283  0.331209  0.665604  1
  O  O8  1  0.116117  0.098787  0.549394  1
  O  O9  1  0.115299  0.448776  0.549464  1
  O  O10  1  0.115299  0.448776  0.899312  1
  O  O11  1  0.034136  0.207514  0.103757  1
  O  O12  1  0.033131  0.896625  0.102446  1
  O  O13  1  0.033131  0.896625  0.794179  1
  O  O14  1  0.445561  0.802279  0.901140  1
  O  O15  1  0.447891  0.098397  0.896766  1
  O  O16  1  0.447891  0.098397  0.201631  1
