# generated using pymatgen
data_Ca(NiO2)2
_symmetry_space_group_name_H-M   'P 1'
_cell_length_a   6.14074906
_cell_length_b   6.14295438
_cell_length_c   18.38564987
_cell_angle_alpha   59.90149104
_cell_angle_beta   59.94917024
_cell_angle_gamma   60.00909445
_symmetry_Int_Tables_number   1
_chemical_formula_structural   Ca(NiO2)2
_chemical_formula_sum   'Ca6 Ni12 O24'
_cell_volume   489.89292961
_cell_formula_units_Z   6
loop_
 _symmetry_equiv_pos_site_id
 _symmetry_equiv_pos_as_xyz
  1  'x, y, z'
loop_
 _atom_site_type_symbol
 _atom_site_label
 _atom_site_symmetry_multiplicity
 _atom_site_fract_x
 _atom_site_fract_y
 _atom_site_fract_z
 _atom_site_occupancy
  Ca  Ca0  1  0.120100  0.120028  0.046809  1
  Ca  Ca1  1  0.113105  0.114445  0.385918  1
  Ca  Ca2  1  0.497133  0.497504  0.335848  1
  Ca  Ca3  1  0.087971  0.087851  0.745423  1
  Ca  Ca4  1  0.510554  0.510629  0.989379  1
  Ca  Ca5  1  0.874763  0.874252  0.625676  1
  Ni  Ni6  1  0.496941  0.496854  0.165589  1
  Ni  Ni7  1  0.496803  0.009411  0.165686  1
  Ni  Ni8  1  0.487442  0.487608  0.510725  1
  Ni  Ni9  1  0.009348  0.496775  0.165693  1
  Ni  Ni10  1  0.487483  0.992864  0.510685  1
  Ni  Ni11  1  0.505230  0.505124  0.661616  1
  Ni  Ni12  1  0.890121  0.889575  0.276674  1
  Ni  Ni13  1  0.500501  0.500368  0.827034  1
  Ni  Ni14  1  0.992658  0.488087  0.510407  1
  Ni  Ni15  1  0.500456  0.018074  0.827041  1
  Ni  Ni16  1  0.018095  0.500469  0.827026  1
  Ni  Ni17  1  0.880031  0.880056  0.953157  1
  O  O18  1  0.254599  0.254946  0.101224  1
  O  O19  1  0.259113  0.258838  0.241638  1
  O  O20  1  0.254846  0.687185  0.100999  1
  O  O21  1  0.687244  0.254834  0.101104  1
  O  O22  1  0.234453  0.234708  0.450612  1
  O  O23  1  0.293271  0.758892  0.229563  1
  O  O24  1  0.242190  0.245095  0.588918  1
  O  O25  1  0.758898  0.292941  0.229762  1
  O  O26  1  0.756395  0.756509  0.076161  1
  O  O27  1  0.234710  0.678736  0.450569  1
  O  O28  1  0.677935  0.234682  0.450976  1
  O  O29  1  0.759110  0.758846  0.229527  1
  O  O30  1  0.295170  0.295401  0.738298  1
  O  O31  1  0.318854  0.724572  0.577358  1
  O  O32  1  0.724549  0.318573  0.577559  1
  O  O33  1  0.273851  0.273271  0.893298  1
  O  O34  1  0.752152  0.747777  0.417786  1
  O  O35  1  0.295764  0.694870  0.738162  1
  O  O36  1  0.694826  0.295426  0.738327  1
  O  O37  1  0.724752  0.724478  0.577466  1
  O  O38  1  0.253697  0.778987  0.895914  1
  O  O39  1  0.778746  0.253934  0.895981  1
  O  O40  1  0.726846  0.727427  0.772645  1
  O  O41  1  0.779294  0.779094  0.895762  1
