# generated using pymatgen
data_Ru(IN3)2
_symmetry_space_group_name_H-M   'P 1'
_cell_length_a   5.48041791
_cell_length_b   5.48041791
_cell_length_c   5.48041791
_cell_angle_alpha   60.00000000
_cell_angle_beta   60.00000000
_cell_angle_gamma   60.00000000
_symmetry_Int_Tables_number   1
_chemical_formula_structural   Ru(IN3)2
_chemical_formula_sum   'Ru1 I2 N6'
_cell_volume   116.39277796
_cell_formula_units_Z   1
loop_
 _symmetry_equiv_pos_site_id
 _symmetry_equiv_pos_as_xyz
  1  'x, y, z'
loop_
 _atom_site_type_symbol
 _atom_site_label
 _atom_site_symmetry_multiplicity
 _atom_site_fract_x
 _atom_site_fract_y
 _atom_site_fract_z
 _atom_site_occupancy
  Ru  Ru0  1  -0.000000  0.000000  -0.000000  1
  I  I1  1  0.250000  0.250000  0.250000  1
  I  I2  1  0.750000  0.750000  0.750000  1
  N  N3  1  0.747692  0.252308  0.252308  1
  N  N4  1  0.747692  0.252308  0.747692  1
  N  N5  1  0.747692  0.747692  0.252308  1
  N  N6  1  0.252308  0.747692  0.747692  1
  N  N7  1  0.252308  0.747692  0.252308  1
  N  N8  1  0.252308  0.252308  0.747692  1
