# generated using pymatgen
data_Te4MoW
_symmetry_space_group_name_H-M   'P 1'
_cell_length_a   3.55259044
_cell_length_b   3.55205250
_cell_length_c   25.04857673
_cell_angle_alpha   90.00009602
_cell_angle_beta   90.00000000
_cell_angle_gamma   120.00500992
_symmetry_Int_Tables_number   1
_chemical_formula_structural   Te4MoW
_chemical_formula_sum   'Te4 Mo1 W1'
_cell_volume   273.72614263
_cell_formula_units_Z   1
loop_
 _symmetry_equiv_pos_site_id
 _symmetry_equiv_pos_as_xyz
  1  'x, y, z'
loop_
 _atom_site_type_symbol
 _atom_site_label
 _atom_site_symmetry_multiplicity
 _atom_site_fract_x
 _atom_site_fract_y
 _atom_site_fract_z
 _atom_site_occupancy
  Te  Te0  1  0.333342  0.666685  0.523852  1
  Te  Te1  1  0.666658  0.333315  0.077938  1
  Te  Te2  1  0.666659  0.333316  0.223011  1
  Te  Te3  1  0.333342  0.666685  0.378945  1
  Mo  Mo4  1  0.666715  0.333430  0.451412  1
  W  W5  1  0.333285  0.666570  0.150446  1
