# generated using pymatgen
data_Cd(GaCl4)2
_symmetry_space_group_name_H-M   'P 1'
_cell_length_a   6.94892623
_cell_length_b   7.27560682
_cell_length_c   13.37869949
_cell_angle_alpha   93.00799176
_cell_angle_beta   90.00000000
_cell_angle_gamma   90.00000000
_symmetry_Int_Tables_number   1
_chemical_formula_structural   Cd(GaCl4)2
_chemical_formula_sum   'Cd2 Ga4 Cl16'
_cell_volume   675.46375338
_cell_formula_units_Z   2
loop_
 _symmetry_equiv_pos_site_id
 _symmetry_equiv_pos_as_xyz
  1  'x, y, z'
loop_
 _atom_site_type_symbol
 _atom_site_label
 _atom_site_symmetry_multiplicity
 _atom_site_fract_x
 _atom_site_fract_y
 _atom_site_fract_z
 _atom_site_occupancy
  Cd  Cd0  1  0.753191  0.923325  0.817086  1
  Cd  Cd1  1  0.246809  0.923325  0.317086  1
  Ga  Ga2  1  0.932720  0.776543  0.577721  1
  Ga  Ga3  1  0.067280  0.776543  0.077721  1
  Ga  Ga4  1  0.568368  0.362565  0.776094  1
  Ga  Ga5  1  0.431632  0.362565  0.276094  1
  Cl  Cl6  1  0.416014  0.386942  0.638785  1
  Cl  Cl7  1  0.583986  0.386942  0.138785  1
  Cl  Cl8  1  0.871660  0.261650  0.761766  1
  Cl  Cl9  1  0.128340  0.261650  0.261766  1
  Cl  Cl10  1  0.940983  0.519233  0.493171  1
  Cl  Cl11  1  0.059017  0.519233  0.993171  1
  Cl  Cl12  1  0.914722  0.996805  0.997128  1
  Cl  Cl13  1  0.085278  0.996805  0.497128  1
  Cl  Cl14  1  0.637120  0.872955  0.621167  1
  Cl  Cl15  1  0.362880  0.872955  0.121167  1
  Cl  Cl16  1  0.562928  0.625629  0.872193  1
  Cl  Cl17  1  0.437072  0.625629  0.372193  1
  Cl  Cl18  1  0.446679  0.134553  0.864992  1
  Cl  Cl19  1  0.553321  0.134553  0.364992  1
  Cl  Cl20  1  0.936852  0.772399  0.232098  1
  Cl  Cl21  1  0.063148  0.772399  0.732098  1
