# generated using pymatgen
data_K3CeCl6
_symmetry_space_group_name_H-M   'P 1'
_cell_length_a   8.10986570
_cell_length_b   8.11744440
_cell_length_c   8.08420982
_cell_angle_alpha   59.93749089
_cell_angle_beta   59.90844246
_cell_angle_gamma   60.03842620
_symmetry_Int_Tables_number   1
_chemical_formula_structural   K3CeCl6
_chemical_formula_sum   'K3 Ce1 Cl6'
_cell_volume   375.98846349
_cell_formula_units_Z   1
loop_
 _symmetry_equiv_pos_site_id
 _symmetry_equiv_pos_as_xyz
  1  'x, y, z'
loop_
 _atom_site_type_symbol
 _atom_site_label
 _atom_site_symmetry_multiplicity
 _atom_site_fract_x
 _atom_site_fract_y
 _atom_site_fract_z
 _atom_site_occupancy
  K  K0  1  0.249991  0.249969  0.250038  1
  K  K1  1  0.750009  0.750031  0.749962  1
  K  K2  1  0.500000  0.500000  0.500000  1
  Ce  Ce3  1  0.000000  -0.000000  -0.000000  1
  Cl  Cl4  1  0.238923  0.760946  0.239333  1
  Cl  Cl5  1  0.760807  0.760925  0.239343  1
  Cl  Cl6  1  0.761077  0.239054  0.760667  1
  Cl  Cl7  1  0.760899  0.238850  0.239385  1
  Cl  Cl8  1  0.239101  0.761150  0.760615  1
  Cl  Cl9  1  0.239193  0.239075  0.760657  1
