# generated using pymatgen
data_Ca(BiO2)2
_symmetry_space_group_name_H-M   'P 1'
_cell_length_a   7.07005364
_cell_length_b   7.07006986
_cell_length_c   21.20249032
_cell_angle_alpha   59.99253475
_cell_angle_beta   59.99253207
_cell_angle_gamma   59.99833755
_symmetry_Int_Tables_number   1
_chemical_formula_structural   Ca(BiO2)2
_chemical_formula_sum   'Ca6 Bi12 O24'
_cell_volume   749.31393839
_cell_formula_units_Z   6
loop_
 _symmetry_equiv_pos_site_id
 _symmetry_equiv_pos_as_xyz
  1  'x, y, z'
loop_
 _atom_site_type_symbol
 _atom_site_label
 _atom_site_symmetry_multiplicity
 _atom_site_fract_x
 _atom_site_fract_y
 _atom_site_fract_z
 _atom_site_occupancy
  Ca  Ca0  1  0.122630  0.122629  0.044041  1
  Ca  Ca1  1  0.125434  0.125436  0.374570  1
  Ca  Ca2  1  0.498303  0.498300  0.001696  1
  Ca  Ca3  1  0.125381  0.125381  0.707945  1
  Ca  Ca4  1  0.875247  0.875249  0.291433  1
  Ca  Ca5  1  0.875592  0.875592  0.624415  1
  Bi  Bi6  1  0.008138  0.499311  0.164392  1
  Bi  Bi7  1  0.499448  0.499448  0.164341  1
  Bi  Bi8  1  0.002695  0.500926  0.498497  1
  Bi  Bi9  1  0.499315  0.008139  0.164391  1
  Bi  Bi10  1  0.504160  0.504156  0.329171  1
  Bi  Bi11  1  0.500906  0.500908  0.498525  1
  Bi  Bi12  1  0.001306  0.499915  0.832885  1
  Bi  Bi13  1  0.500917  0.002700  0.498498  1
  Bi  Bi14  1  0.499915  0.001309  0.832883  1
  Bi  Bi15  1  0.502637  0.502638  0.664009  1
  Bi  Bi16  1  0.499979  0.499968  0.832875  1
  Bi  Bi17  1  0.878365  0.878367  0.954954  1
  O  O18  1  0.258850  0.258856  0.087666  1
  O  O19  1  0.260896  0.260889  0.239117  1
  O  O20  1  0.258871  0.719303  0.087660  1
  O  O21  1  0.719312  0.258867  0.087661  1
  O  O22  1  0.273392  0.739555  0.249199  1
  O  O23  1  0.254366  0.254367  0.421023  1
  O  O24  1  0.739560  0.273394  0.249199  1
  O  O25  1  0.749210  0.749209  0.084110  1
  O  O26  1  0.254428  0.728206  0.420996  1
  O  O27  1  0.258166  0.258168  0.575164  1
  O  O28  1  0.739461  0.739460  0.249242  1
  O  O29  1  0.728210  0.254424  0.420997  1
  O  O30  1  0.274459  0.739522  0.582215  1
  O  O31  1  0.254956  0.254962  0.755063  1
  O  O32  1  0.739526  0.274456  0.582216  1
  O  O33  1  0.742497  0.742506  0.424134  1
  O  O34  1  0.257477  0.257470  0.909206  1
  O  O35  1  0.254912  0.724876  0.755086  1
  O  O36  1  0.739431  0.739423  0.582236  1
  O  O37  1  0.724874  0.254922  0.755086  1
  O  O38  1  0.274540  0.739891  0.915239  1
  O  O39  1  0.742511  0.742516  0.757479  1
  O  O40  1  0.739883  0.274541  0.915240  1
  O  O41  1  0.739844  0.739847  0.915244  1
