# generated using pymatgen
data_MoWSe4
_symmetry_space_group_name_H-M   'P 1'
_cell_length_a   3.32290834
_cell_length_b   3.32283322
_cell_length_c   37.84942797
_cell_angle_alpha   90.00015696
_cell_angle_beta   90.00000000
_cell_angle_gamma   120.00074780
_symmetry_Int_Tables_number   1
_chemical_formula_structural   MoWSe4
_chemical_formula_sum   'Mo2 W2 Se8'
_cell_volume   361.92083504
_cell_formula_units_Z   2
loop_
 _symmetry_equiv_pos_site_id
 _symmetry_equiv_pos_as_xyz
  1  'x, y, z'
loop_
 _atom_site_type_symbol
 _atom_site_label
 _atom_site_symmetry_multiplicity
 _atom_site_fract_x
 _atom_site_fract_y
 _atom_site_fract_z
 _atom_site_occupancy
  Mo  Mo0  1  0.333308  0.666616  0.093919  1
  Mo  Mo1  1  0.666689  0.333378  0.281801  1
  W  W2  1  0.333312  0.666624  0.469658  1
  W  W3  1  0.666690  0.333381  0.657538  1
  Se  Se4  1  0.333354  0.666708  0.326097  1
  Se  Se5  1  0.333354  0.666709  0.702044  1
  Se  Se6  1  0.666641  0.333282  0.049638  1
  Se  Se7  1  0.666647  0.333294  0.425162  1
  Se  Se8  1  0.666647  0.333293  0.138211  1
  Se  Se9  1  0.666648  0.333294  0.514149  1
  Se  Se10  1  0.333353  0.666707  0.237506  1
  Se  Se11  1  0.333356  0.666714  0.613025  1
