# generated using pymatgen
data_Sb5IO7
_symmetry_space_group_name_H-M   'P 1'
_cell_length_a   7.06936566
_cell_length_b   12.17232159
_cell_length_c   13.23471628
_cell_angle_alpha   90.00000000
_cell_angle_beta   90.00000000
_cell_angle_gamma   95.40098330
_symmetry_Int_Tables_number   1
_chemical_formula_structural   Sb5IO7
_chemical_formula_sum   'Sb20 I4 O28'
_cell_volume   1133.79905548
_cell_formula_units_Z   4
loop_
 _symmetry_equiv_pos_site_id
 _symmetry_equiv_pos_as_xyz
  1  'x, y, z'
loop_
 _atom_site_type_symbol
 _atom_site_label
 _atom_site_symmetry_multiplicity
 _atom_site_fract_x
 _atom_site_fract_y
 _atom_site_fract_z
 _atom_site_occupancy
  Sb  Sb0  1  0.968446  0.052741  0.242923  1
  Sb  Sb1  1  0.468446  0.552741  0.757077  1
  Sb  Sb2  1  0.001576  0.119528  0.716088  1
  Sb  Sb3  1  0.501576  0.619528  0.283912  1
  Sb  Sb4  1  0.420034  0.275343  0.226933  1
  Sb  Sb5  1  0.920034  0.775343  0.773067  1
  Sb  Sb6  1  0.409936  0.249571  0.745027  1
  Sb  Sb7  1  0.909936  0.749571  0.254973  1
  Sb  Sb8  1  0.964778  0.407979  0.240204  1
  Sb  Sb9  1  0.464778  0.907979  0.759796  1
  Sb  Sb10  1  0.999452  0.402261  0.732871  1
  Sb  Sb11  1  0.499452  0.902261  0.267129  1
  Sb  Sb12  1  0.271226  0.485536  0.067671  1
  Sb  Sb13  1  0.771226  0.985536  0.932329  1
  Sb  Sb14  1  0.303547  0.402666  0.448406  1
  Sb  Sb15  1  0.803547  0.902666  0.551594  1
  Sb  Sb16  1  0.826220  0.577642  0.553532  1
  Sb  Sb17  1  0.326220  0.077642  0.446468  1
  Sb  Sb18  1  0.796217  0.534077  0.936062  1
  Sb  Sb19  1  0.296217  0.034077  0.063938  1
  I  I20  1  0.723725  0.229584  0.022917  1
  I  I21  1  0.223725  0.729584  0.977083  1
  I  I22  1  0.790773  0.295619  0.497731  1
  I  I23  1  0.290773  0.795619  0.502269  1
  O  O24  1  0.272596  0.134837  0.185070  1
  O  O25  1  0.772596  0.634837  0.814930  1
  O  O26  1  0.289639  0.404303  0.726883  1
  O  O27  1  0.789639  0.904303  0.273117  1
  O  O28  1  0.477278  0.502068  0.167863  1
  O  O29  1  0.977278  0.002068  0.832137  1
  O  O30  1  0.520523  0.480155  0.376004  1
  O  O31  1  0.020523  0.980155  0.623996  1
  O  O32  1  0.607700  0.512860  0.634662  1
  O  O33  1  0.107700  0.012860  0.365338  1
  O  O34  1  0.576575  0.454195  0.859821  1
  O  O35  1  0.076575  0.954195  0.140179  1
  O  O36  1  0.047384  0.532426  0.147313  1
  O  O37  1  0.547384  0.032426  0.852687  1
  O  O38  1  0.124856  0.467752  0.351881  1
  O  O39  1  0.624856  0.967752  0.648119  1
  O  O40  1  0.023868  0.545070  0.656260  1
  O  O41  1  0.523868  0.045070  0.343740  1
  O  O42  1  0.010180  0.464990  0.872069  1
  O  O43  1  0.510180  0.964990  0.127931  1
  O  O44  1  0.185787  0.340715  0.166213  1
  O  O45  1  0.685787  0.840715  0.833787  1
  O  O46  1  0.300927  0.252257  0.368764  1
  O  O47  1  0.800927  0.752257  0.631236  1
  O  O48  1  0.253650  0.173283  0.636057  1
  O  O49  1  0.753650  0.673283  0.363943  1
  O  O50  1  0.194078  0.193343  0.827245  1
  O  O51  1  0.694078  0.693343  0.172755  1
