# generated using pymatgen
data_Ti2ZnO4
_symmetry_space_group_name_H-M   'P 1'
_cell_length_a   5.98490446
_cell_length_b   5.98636782
_cell_length_c   18.31401583
_cell_angle_alpha   60.64831874
_cell_angle_beta   60.64042490
_cell_angle_gamma   59.99798754
_symmetry_Int_Tables_number   1
_chemical_formula_structural   Ti2ZnO4
_chemical_formula_sum   'Ti12 Zn6 O24'
_cell_volume   468.42967360
_cell_formula_units_Z   6
loop_
 _symmetry_equiv_pos_site_id
 _symmetry_equiv_pos_as_xyz
  1  'x, y, z'
loop_
 _atom_site_type_symbol
 _atom_site_label
 _atom_site_symmetry_multiplicity
 _atom_site_fract_x
 _atom_site_fract_y
 _atom_site_fract_z
 _atom_site_occupancy
  Ti  Ti0  1  0.509660  0.509630  0.165307  1
  Ti  Ti1  1  0.509607  0.984848  0.165325  1
  Ti  Ti2  1  0.506350  0.506296  0.500668  1
  Ti  Ti3  1  0.984783  0.509649  0.165310  1
  Ti  Ti4  1  0.506317  0.985385  0.500667  1
  Ti  Ti5  1  0.489361  0.489626  0.677173  1
  Ti  Ti6  1  0.877145  0.877203  0.289486  1
  Ti  Ti7  1  0.491995  0.492143  0.828736  1
  Ti  Ti8  1  0.985339  0.506302  0.500674  1
  Ti  Ti9  1  0.492085  0.029550  0.828754  1
  Ti  Ti10  1  0.029735  0.492114  0.828722  1
  Ti  Ti11  1  0.884302  0.884474  0.948946  1
  Zn  Zn12  1  0.121768  0.121531  0.045027  1
  Zn  Zn13  1  0.127268  0.127147  0.372824  1
  Zn  Zn14  1  0.493587  0.493539  0.339795  1
  Zn  Zn15  1  0.137885  0.137813  0.695499  1
  Zn  Zn16  1  0.498192  0.498147  0.001844  1
  Zn  Zn17  1  0.869172  0.869326  0.630703  1
  O  O18  1  0.250948  0.251005  0.092850  1
  O  O19  1  0.259553  0.259558  0.240461  1
  O  O20  1  0.250921  0.719486  0.092882  1
  O  O21  1  0.719588  0.250902  0.092879  1
  O  O22  1  0.248948  0.248957  0.427133  1
  O  O23  1  0.260806  0.746120  0.248965  1
  O  O24  1  0.265065  0.265059  0.568276  1
  O  O25  1  0.746147  0.260767  0.248991  1
  O  O26  1  0.760286  0.760311  0.072991  1
  O  O27  1  0.248895  0.720764  0.427153  1
  O  O28  1  0.720794  0.248866  0.427165  1
  O  O29  1  0.746061  0.745974  0.249019  1
  O  O30  1  0.253562  0.253377  0.749936  1
  O  O31  1  0.277706  0.735004  0.584088  1
  O  O32  1  0.734990  0.277719  0.584094  1
  O  O33  1  0.252939  0.252786  0.913811  1
  O  O34  1  0.751814  0.751820  0.414849  1
  O  O35  1  0.253530  0.743410  0.749885  1
  O  O36  1  0.743208  0.253496  0.749915  1
  O  O37  1  0.734956  0.734949  0.584096  1
  O  O38  1  0.268769  0.749744  0.910603  1
  O  O39  1  0.749685  0.268733  0.910624  1
  O  O40  1  0.736699  0.736794  0.763253  1
  O  O41  1  0.749579  0.749674  0.910620  1
