# generated using pymatgen
data_Y3NF10
_symmetry_space_group_name_H-M   'P 1'
_cell_length_a   8.29471078
_cell_length_b   8.29471078
_cell_length_c   8.29471078
_cell_angle_alpha   60.00000000
_cell_angle_beta   60.00000000
_cell_angle_gamma   60.00000000
_symmetry_Int_Tables_number   1
_chemical_formula_structural   Y3NF10
_chemical_formula_sum   'Y6 N2 F20'
_cell_volume   403.54200270
_cell_formula_units_Z   2
loop_
 _symmetry_equiv_pos_site_id
 _symmetry_equiv_pos_as_xyz
  1  'x, y, z'
loop_
 _atom_site_type_symbol
 _atom_site_label
 _atom_site_symmetry_multiplicity
 _atom_site_fract_x
 _atom_site_fract_y
 _atom_site_fract_z
 _atom_site_occupancy
  Y  Y0  1  0.761501  0.238499  0.761501  1
  Y  Y1  1  0.761501  0.761501  0.238499  1
  Y  Y2  1  0.761501  0.238499  0.238499  1
  Y  Y3  1  0.238499  0.761501  0.238499  1
  Y  Y4  1  0.238499  0.761501  0.761501  1
  Y  Y5  1  0.238499  0.238499  0.761501  1
  N  N6  1  0.250000  0.250000  0.250000  1
  N  N7  1  0.750000  0.750000  0.750000  1
  F  F8  1  0.668950  0.110350  0.110350  1
  F  F9  1  0.110350  0.668950  0.110350  1
  F  F10  1  0.110350  0.110350  0.668950  1
  F  F11  1  0.110350  0.110350  0.110350  1
  F  F12  1  0.331050  0.889650  0.889650  1
  F  F13  1  0.889650  0.331050  0.889650  1
  F  F14  1  0.889650  0.889650  0.331050  1
  F  F15  1  0.889650  0.889650  0.889650  1
  F  F16  1  0.825122  0.500000  0.500000  1
  F  F17  1  0.825122  0.500000  0.174878  1
  F  F18  1  0.825122  0.174878  0.500000  1
  F  F19  1  0.500000  0.825122  0.174878  1
  F  F20  1  0.500000  0.825122  0.500000  1
  F  F21  1  0.174878  0.825122  0.500000  1
  F  F22  1  0.500000  0.174878  0.825122  1
  F  F23  1  0.174878  0.500000  0.825122  1
  F  F24  1  0.500000  0.500000  0.825122  1
  F  F25  1  0.174878  0.500000  0.500000  1
  F  F26  1  0.500000  0.174878  0.500000  1
  F  F27  1  0.500000  0.500000  0.174878  1
