# generated using pymatgen
data_TeWSe
_symmetry_space_group_name_H-M   'P 1'
_cell_length_a   3.43712879
_cell_length_b   3.43708022
_cell_length_c   24.47412937
_cell_angle_alpha   89.99986567
_cell_angle_beta   90.00000000
_cell_angle_gamma   120.00046756
_symmetry_Int_Tables_number   1
_chemical_formula_structural   TeWSe
_chemical_formula_sum   'Te2 W2 Se2'
_cell_volume   250.39249681
_cell_formula_units_Z   2
loop_
 _symmetry_equiv_pos_site_id
 _symmetry_equiv_pos_as_xyz
  1  'x, y, z'
loop_
 _atom_site_type_symbol
 _atom_site_label
 _atom_site_symmetry_multiplicity
 _atom_site_fract_x
 _atom_site_fract_y
 _atom_site_fract_z
 _atom_site_occupancy
  Te  Te0  1  0.333352  0.666705  0.527705  1
  Te  Te1  1  0.333366  0.666734  0.375117  1
  W  W2  1  0.333308  0.666617  0.150433  1
  W  W3  1  0.666691  0.333382  0.451419  1
  Se  Se4  1  0.666639  0.333277  0.083281  1
  Se  Se5  1  0.666643  0.333286  0.217649  1
