# generated using pymatgen
data_Mg(CuO2)2
_symmetry_space_group_name_H-M   'P 1'
_cell_length_a   5.93123069
_cell_length_b   5.93105438
_cell_length_c   17.74709346
_cell_angle_alpha   59.93095046
_cell_angle_beta   59.91548351
_cell_angle_gamma   59.99068897
_symmetry_Int_Tables_number   1
_chemical_formula_structural   Mg(CuO2)2
_chemical_formula_sum   'Mg6 Cu12 O24'
_cell_volume   440.91354326
_cell_formula_units_Z   6
loop_
 _symmetry_equiv_pos_site_id
 _symmetry_equiv_pos_as_xyz
  1  'x, y, z'
loop_
 _atom_site_type_symbol
 _atom_site_label
 _atom_site_symmetry_multiplicity
 _atom_site_fract_x
 _atom_site_fract_y
 _atom_site_fract_z
 _atom_site_occupancy
  Mg  Mg0  1  0.121131  0.121239  0.045490  1
  Mg  Mg1  1  0.123483  0.123587  0.376479  1
  Mg  Mg2  1  0.498291  0.498214  0.001708  1
  Mg  Mg3  1  0.122414  0.122426  0.710899  1
  Mg  Mg4  1  0.877707  0.877645  0.288995  1
  Mg  Mg5  1  0.874137  0.874009  0.625933  1
  Cu  Cu6  1  0.001236  0.500178  0.166122  1
  Cu  Cu7  1  0.500221  0.500261  0.166081  1
  Cu  Cu8  1  0.000166  0.499928  0.499979  1
  Cu  Cu9  1  0.500152  0.001240  0.166131  1
  Cu  Cu10  1  0.499968  0.499996  0.333407  1
  Cu  Cu11  1  0.499972  0.499985  0.499944  1
  Cu  Cu12  1  0.000082  0.498713  0.834165  1
  Cu  Cu13  1  0.499914  0.000180  0.499977  1
  Cu  Cu14  1  0.498694  0.000083  0.834159  1
  Cu  Cu15  1  0.501221  0.501242  0.665437  1
  Cu  Cu16  1  0.498692  0.498726  0.834186  1
  Cu  Cu17  1  0.877633  0.877658  0.955614  1
  O  O18  1  0.254587  0.254378  0.091962  1
  O  O19  1  0.258489  0.258325  0.241381  1
  O  O20  1  0.254666  0.714878  0.092079  1
  O  O21  1  0.714773  0.254600  0.092087  1
  O  O22  1  0.290565  0.738346  0.244118  1
  O  O23  1  0.261956  0.262014  0.420179  1
  O  O24  1  0.738294  0.290494  0.244113  1
  O  O25  1  0.746004  0.746041  0.087523  1
  O  O26  1  0.262076  0.715490  0.420123  1
  O  O27  1  0.259842  0.260000  0.573367  1
  O  O28  1  0.738683  0.738858  0.244150  1
  O  O29  1  0.715379  0.262194  0.420108  1
  O  O30  1  0.283176  0.738977  0.579546  1
  O  O31  1  0.263541  0.263502  0.753303  1
  O  O32  1  0.739058  0.283086  0.579542  1
  O  O33  1  0.740529  0.740391  0.426258  1
  O  O34  1  0.259749  0.259501  0.907091  1
  O  O35  1  0.263600  0.712817  0.753313  1
  O  O36  1  0.739232  0.739222  0.579501  1
  O  O37  1  0.712625  0.263602  0.753365  1
  O  O38  1  0.277312  0.746913  0.909724  1
  O  O39  1  0.736894  0.737119  0.762940  1
  O  O40  1  0.747018  0.277108  0.909725  1
  O  O41  1  0.746834  0.746830  0.909792  1
