# generated using pymatgen
data_WSeS
_symmetry_space_group_name_H-M   'P 1'
_cell_length_a   3.25343219
_cell_length_b   3.25341779
_cell_length_c   36.93005953
_cell_angle_alpha   90.00002902
_cell_angle_beta   90.00000000
_cell_angle_gamma   120.00014632
_symmetry_Int_Tables_number   1
_chemical_formula_structural   WSeS
_chemical_formula_sum   'W4 Se4 S4'
_cell_volume   338.52566147
_cell_formula_units_Z   4
loop_
 _symmetry_equiv_pos_site_id
 _symmetry_equiv_pos_as_xyz
  1  'x, y, z'
loop_
 _atom_site_type_symbol
 _atom_site_label
 _atom_site_symmetry_multiplicity
 _atom_site_fract_x
 _atom_site_fract_y
 _atom_site_fract_z
 _atom_site_occupancy
  W  W0  1  0.333311  0.666621  0.093918  1
  W  W1  1  0.333312  0.666624  0.469645  1
  W  W2  1  0.666689  0.333377  0.281775  1
  W  W3  1  0.666688  0.333375  0.657565  1
  Se  Se4  1  0.333352  0.666705  0.703829  1
  Se  Se5  1  0.666648  0.333295  0.423394  1
  Se  Se6  1  0.666647  0.333293  0.515919  1
  Se  Se7  1  0.333352  0.666705  0.611290  1
  S  S8  1  0.333355  0.666710  0.323795  1
  S  S9  1  0.666646  0.333292  0.051909  1
  S  S10  1  0.666646  0.333292  0.135924  1
  S  S11  1  0.333354  0.666710  0.239786  1
