# generated using pymatgen
data_Ti3(SeS2)2
_symmetry_space_group_name_H-M   'P 1'
_cell_length_a   3.46454354
_cell_length_b   3.46452209
_cell_length_c   18.48128663
_cell_angle_alpha   90.00000001
_cell_angle_beta   90.00367106
_cell_angle_gamma   119.99979897
_symmetry_Int_Tables_number   1
_chemical_formula_structural   Ti3(SeS2)2
_chemical_formula_sum   'Ti3 Se2 S4'
_cell_volume   192.11137094
_cell_formula_units_Z   1
loop_
 _symmetry_equiv_pos_site_id
 _symmetry_equiv_pos_as_xyz
  1  'x, y, z'
loop_
 _atom_site_type_symbol
 _atom_site_label
 _atom_site_symmetry_multiplicity
 _atom_site_fract_x
 _atom_site_fract_y
 _atom_site_fract_z
 _atom_site_occupancy
  Ti  Ti0  1  0.999814  0.999907  0.005876  1
  Ti  Ti1  1  0.000027  0.000014  0.332822  1
  Ti  Ti2  1  0.000059  0.000029  0.671596  1
  Se  Se3  1  0.666631  0.333316  0.583128  1
  Se  Se4  1  0.666772  0.333386  0.917221  1
  S  S5  1  0.333400  0.666700  0.078903  1
  S  S6  1  0.333339  0.666670  0.408813  1
  S  S7  1  0.333329  0.666664  0.744903  1
  S  S8  1  0.666629  0.333315  0.256737  1
