# generated using pymatgen
data_Bi3Te5Pb
_symmetry_space_group_name_H-M   'P 1'
_cell_length_a   4.62650343
_cell_length_b   4.62698703
_cell_length_c   17.13716373
_cell_angle_alpha   90.00000002
_cell_angle_beta   90.00460368
_cell_angle_gamma   120.00346915
_symmetry_Int_Tables_number   1
_chemical_formula_structural   Bi3Te5Pb
_chemical_formula_sum   'Bi3 Te5 Pb1'
_cell_volume   317.69147655
_cell_formula_units_Z   1
loop_
 _symmetry_equiv_pos_site_id
 _symmetry_equiv_pos_as_xyz
  1  'x, y, z'
loop_
 _atom_site_type_symbol
 _atom_site_label
 _atom_site_symmetry_multiplicity
 _atom_site_fract_x
 _atom_site_fract_y
 _atom_site_fract_z
 _atom_site_occupancy
  Bi  Bi0  1  0.000042  0.000021  0.000250  1
  Bi  Bi1  1  0.333303  0.666652  0.774329  1
  Bi  Bi2  1  0.666712  0.333356  0.222116  1
  Te  Te3  1  0.333412  0.666706  0.107714  1
  Te  Te4  1  0.666634  0.333317  0.900071  1
  Te  Te5  1  0.666661  0.333330  0.543868  1
  Te  Te6  1  0.000024  0.000012  0.315864  1
  Te  Te7  1  0.999950  0.999975  0.683902  1
  Pb  Pb8  1  0.333261  0.666631  0.451887  1
