# generated using pymatgen
data_LiPm2Co
_symmetry_space_group_name_H-M   'P 1'
_cell_length_a   4.97427290
_cell_length_b   4.97438427
_cell_length_c   4.97515532
_cell_angle_alpha   59.99394744
_cell_angle_beta   59.99585901
_cell_angle_gamma   60.01800037
_symmetry_Int_Tables_number   1
_chemical_formula_structural   LiPm2Co
_chemical_formula_sum   'Li1 Pm2 Co1'
_cell_volume   87.05348471
_cell_formula_units_Z   1
loop_
 _symmetry_equiv_pos_site_id
 _symmetry_equiv_pos_as_xyz
  1  'x, y, z'
loop_
 _atom_site_type_symbol
 _atom_site_label
 _atom_site_symmetry_multiplicity
 _atom_site_fract_x
 _atom_site_fract_y
 _atom_site_fract_z
 _atom_site_occupancy
  Li  Li0  1  0.749998  0.750003  0.750000  1
  Pm  Pm1  1  -0.000013  -0.000010  0.000012  1
  Pm  Pm2  1  0.500016  0.500008  0.499987  1
  Co  Co3  1  0.249998  0.249999  0.249999  1
