# generated using pymatgen
data_Cd4HgSe5
_symmetry_space_group_name_H-M   'P 1'
_cell_length_a   4.41062820
_cell_length_b   4.41082200
_cell_length_c   35.93631176
_cell_angle_alpha   90.00000000
_cell_angle_beta   89.99950986
_cell_angle_gamma   59.99854648
_symmetry_Int_Tables_number   1
_chemical_formula_structural   Cd4HgSe5
_chemical_formula_sum   'Cd8 Hg2 Se10'
_cell_volume   605.44926268
_cell_formula_units_Z   2
loop_
 _symmetry_equiv_pos_site_id
 _symmetry_equiv_pos_as_xyz
  1  'x, y, z'
loop_
 _atom_site_type_symbol
 _atom_site_label
 _atom_site_symmetry_multiplicity
 _atom_site_fract_x
 _atom_site_fract_y
 _atom_site_fract_z
 _atom_site_occupancy
  Cd  Cd0  1  0.666641  0.666680  0.100238  1
  Cd  Cd1  1  0.666640  0.666680  0.300081  1
  Cd  Cd2  1  0.666640  0.666680  0.500092  1
  Cd  Cd3  1  0.666640  0.666680  0.700057  1
  Cd  Cd4  1  0.666640  0.666680  0.900214  1
  Cd  Cd5  1  0.333360  0.333320  0.200064  1
  Cd  Cd6  1  0.333361  0.333319  0.400089  1
  Cd  Cd7  1  0.333362  0.333319  0.600079  1
  Hg  Hg8  1  0.333378  0.333311  0.799964  1
  Hg  Hg9  1  0.333365  0.333317  -0.000056  1
  Se  Se10  1  0.666654  0.666673  0.025419  1
  Se  Se11  1  0.666652  0.666674  0.224920  1
  Se  Se12  1  0.666650  0.666675  0.424910  1
  Se  Se13  1  0.666651  0.666675  0.624886  1
  Se  Se14  1  0.666626  0.666687  0.825385  1
  Se  Se15  1  0.333347  0.333327  0.124941  1
  Se  Se16  1  0.333348  0.333326  0.324912  1
  Se  Se17  1  0.333349  0.333325  0.524906  1
  Se  Se18  1  0.333349  0.333326  0.724431  1
  Se  Se19  1  0.333347  0.333327  0.924467  1
