# generated using pymatgen
data_Ca(SiO2)8
_symmetry_space_group_name_H-M   'P 1'
_cell_length_a   6.75415747
_cell_length_b   9.93604410
_cell_length_c   14.06700166
_cell_angle_alpha   90.00000000
_cell_angle_beta   90.00000000
_cell_angle_gamma   108.36344708
_symmetry_Int_Tables_number   1
_chemical_formula_structural   Ca(SiO2)8
_chemical_formula_sum   'Ca2 Si16 O32'
_cell_volume   895.95823933
_cell_formula_units_Z   2
loop_
 _symmetry_equiv_pos_site_id
 _symmetry_equiv_pos_as_xyz
  1  'x, y, z'
loop_
 _atom_site_type_symbol
 _atom_site_label
 _atom_site_symmetry_multiplicity
 _atom_site_fract_x
 _atom_site_fract_y
 _atom_site_fract_z
 _atom_site_occupancy
  Ca  Ca0  1  0.853591  0.362859  0.277746  1
  Ca  Ca1  1  0.353590  0.862859  0.722254  1
  Si  Si2  1  0.121171  0.946925  0.351337  1
  Si  Si3  1  0.621171  0.446925  0.648663  1
  Si  Si4  1  0.085282  0.909536  0.127409  1
  Si  Si5  1  0.585282  0.409536  0.872591  1
  Si  Si6  1  0.772540  0.647608  0.372098  1
  Si  Si7  1  0.272540  0.147608  0.627902  1
  Si  Si8  1  0.454446  0.646132  0.528770  1
  Si  Si9  1  0.954446  0.146132  0.471230  1
  Si  Si10  1  0.474669  0.960825  0.495798  1
  Si  Si11  1  0.974669  0.460825  0.504202  1
  Si  Si12  1  0.370548  0.583180  0.003560  1
  Si  Si13  1  0.870548  0.083180  0.996440  1
  Si  Si14  1  0.896823  0.397286  0.026824  1
  Si  Si15  1  0.396823  0.897286  0.973176  1
  Si  Si16  1  0.735923  0.608567  0.145394  1
  Si  Si17  1  0.235923  0.108567  0.854606  1
  O  O18  1  0.783281  0.459685  0.114159  1
  O  O19  1  0.283281  0.959685  0.885841  1
  O  O20  1  0.976264  0.016233  0.079199  1
  O  O21  1  0.476264  0.516233  0.920801  1
  O  O22  1  0.519425  0.616693  0.098809  1
  O  O23  1  0.019425  0.116693  0.901191  1
  O  O24  1  0.926375  0.808310  0.382860  1
  O  O25  1  0.426375  0.308310  0.617140  1
  O  O26  1  0.929121  0.746498  0.115255  1
  O  O27  1  0.429121  0.246498  0.884745  1
  O  O28  1  0.578477  0.591127  0.611359  1
  O  O29  1  0.078477  0.091127  0.388641  1
  O  O30  1  0.474115  0.813000  0.550258  1
  O  O31  1  0.974115  0.313000  0.449742  1
  O  O32  1  0.307491  0.928229  0.075062  1
  O  O33  1  0.807491  0.428229  0.924938  1
  O  O34  1  0.879037  0.533157  0.417014  1
  O  O35  1  0.379037  0.033157  0.582986  1
  O  O36  1  0.553732  0.634194  0.424797  1
  O  O37  1  0.053732  0.134194  0.575203  1
  O  O38  1  0.722736  0.592480  0.261906  1
  O  O39  1  0.222736  0.092480  0.738094  1
  O  O40  1  0.836996  0.226550  0.040613  1
  O  O41  1  0.336996  0.726550  0.959387  1
  O  O42  1  0.209750  0.554475  0.529701  1
  O  O43  1  0.709750  0.054475  0.470299  1
  O  O44  1  0.334142  0.932612  0.399969  1
  O  O45  1  0.834142  0.432612  0.600031  1
  O  O46  1  0.146605  0.471511  0.032905  1
  O  O47  1  0.646605  0.971511  0.967095  1
  O  O48  1  0.138458  0.951326  0.237411  1
  O  O49  1  0.638458  0.451326  0.762589  1
