# generated using pymatgen
data_Sc6Ga16Rh7
_symmetry_space_group_name_H-M   'P 1'
_cell_length_a   8.82681582
_cell_length_b   8.82681582
_cell_length_c   8.82681582
_cell_angle_alpha   60.00000000
_cell_angle_beta   60.00000000
_cell_angle_gamma   60.00000000
_symmetry_Int_Tables_number   1
_chemical_formula_structural   Sc6Ga16Rh7
_chemical_formula_sum   'Sc6 Ga16 Rh7'
_cell_volume   486.29207918
_cell_formula_units_Z   1
loop_
 _symmetry_equiv_pos_site_id
 _symmetry_equiv_pos_as_xyz
  1  'x, y, z'
loop_
 _atom_site_type_symbol
 _atom_site_label
 _atom_site_symmetry_multiplicity
 _atom_site_fract_x
 _atom_site_fract_y
 _atom_site_fract_z
 _atom_site_occupancy
  Sc  Sc0  1  0.708750  0.291250  0.291250  1
  Sc  Sc1  1  0.708750  0.291250  0.708750  1
  Sc  Sc2  1  0.708750  0.708750  0.291250  1
  Sc  Sc3  1  0.291250  0.708750  0.708750  1
  Sc  Sc4  1  0.291250  0.708750  0.291250  1
  Sc  Sc5  1  0.291250  0.291250  0.708750  1
  Ga  Ga6  1  0.635766  0.121411  0.121411  1
  Ga  Ga7  1  0.121411  0.635766  0.121411  1
  Ga  Ga8  1  0.121411  0.121411  0.635766  1
  Ga  Ga9  1  0.121411  0.121411  0.121411  1
  Ga  Ga10  1  0.364234  0.878589  0.878589  1
  Ga  Ga11  1  0.878589  0.364234  0.878589  1
  Ga  Ga12  1  0.878589  0.878589  0.364234  1
  Ga  Ga13  1  0.878589  0.878589  0.878589  1
  Ga  Ga14  1  0.980778  0.339741  0.339741  1
  Ga  Ga15  1  0.339741  0.980778  0.339741  1
  Ga  Ga16  1  0.339741  0.339741  0.980778  1
  Ga  Ga17  1  0.339741  0.339741  0.339741  1
  Ga  Ga18  1  0.019222  0.660259  0.660259  1
  Ga  Ga19  1  0.660259  0.019222  0.660259  1
  Ga  Ga20  1  0.660259  0.660259  0.019222  1
  Ga  Ga21  1  0.660259  0.660259  0.660259  1
  Rh  Rh22  1  0.000000  0.000000  -0.000000  1
  Rh  Rh23  1  0.500000  0.000000  0.000000  1
  Rh  Rh24  1  0.500000  0.000000  0.500000  1
  Rh  Rh25  1  0.500000  0.500000  -0.000000  1
  Rh  Rh26  1  0.000000  0.500000  0.500000  1
  Rh  Rh27  1  0.000000  0.500000  0.000000  1
  Rh  Rh28  1  0.000000  0.000000  0.500000  1
