# generated using pymatgen
data_Fe2(PO3)5
_symmetry_space_group_name_H-M   'P 1'
_cell_length_a   12.99099085
_cell_length_b   8.41856025
_cell_length_c   5.27542861
_cell_angle_alpha   90.00000000
_cell_angle_beta   93.54291714
_cell_angle_gamma   90.00000000
_symmetry_Int_Tables_number   1
_chemical_formula_structural   Fe2(PO3)5
_chemical_formula_sum   'Fe4 P10 O30'
_cell_volume   575.84689511
_cell_formula_units_Z   2
loop_
 _symmetry_equiv_pos_site_id
 _symmetry_equiv_pos_as_xyz
  1  'x, y, z'
loop_
 _atom_site_type_symbol
 _atom_site_label
 _atom_site_symmetry_multiplicity
 _atom_site_fract_x
 _atom_site_fract_y
 _atom_site_fract_z
 _atom_site_occupancy
  Fe  Fe0  1  0.039252  0.711729  0.109936  1
  Fe  Fe1  1  0.460216  0.710657  0.389741  1
  Fe  Fe2  1  0.960216  0.289343  0.889741  1
  Fe  Fe3  1  0.539252  0.288271  0.609936  1
  P  P4  1  0.746458  0.067266  0.751046  1
  P  P5  1  0.358794  0.490312  0.880692  1
  P  P6  1  0.646818  0.488322  0.123382  1
  P  P7  1  0.146818  0.511678  0.623382  1
  P  P8  1  0.099432  0.179877  0.434658  1
  P  P9  1  0.897597  0.828081  0.566991  1
  P  P10  1  0.858794  0.509688  0.380692  1
  P  P11  1  0.599432  0.820123  0.934658  1
  P  P12  1  0.397597  0.171919  0.066991  1
  P  P13  1  0.246458  0.932734  0.251046  1
  O  O14  1  0.554423  0.794579  0.670943  1
  O  O15  1  0.823667  0.676346  0.494356  1
  O  O16  1  0.447663  0.194268  0.329001  1
  O  O17  1  0.310502  0.039663  0.056460  1
  O  O18  1  0.196157  0.060695  0.432718  1
  O  O19  1  0.076475  0.517228  0.842380  1
  O  O20  1  0.820331  0.161702  0.916333  1
  O  O21  1  0.947663  0.805732  0.829001  1
  O  O22  1  0.387547  0.600599  0.091198  1
  O  O23  1  0.623093  0.380906  0.901349  1
  O  O24  1  0.466524  0.148210  0.850447  1
  O  O25  1  0.661789  0.144677  0.581114  1
  O  O26  1  0.054423  0.205421  0.170943  1
  O  O27  1  0.434364  0.464422  0.675999  1
  O  O28  1  0.934364  0.535578  0.175999  1
  O  O29  1  0.810502  0.960337  0.556460  1
  O  O30  1  0.258508  0.559029  0.735429  1
  O  O31  1  0.533038  0.864516  0.143499  1
  O  O32  1  0.323667  0.323654  -0.005644  1
  O  O33  1  0.576475  0.482772  0.342380  1
  O  O34  1  0.123093  0.619094  0.401349  1
  O  O35  1  0.696157  0.939305  0.932718  1
  O  O36  1  0.320331  0.838298  0.416333  1
  O  O37  1  0.887547  0.399401  0.591198  1
  O  O38  1  0.665987  0.662747  0.024447  1
  O  O39  1  0.033038  0.135484  0.643499  1
  O  O40  1  0.161789  0.855323  0.081114  1
  O  O41  1  0.165987  0.337253  0.524447  1
  O  O42  1  0.758508  0.440971  0.235429  1
  O  O43  1  0.966524  0.851790  0.350447  1
