# generated using pymatgen
data_Li7NbS6
_symmetry_space_group_name_H-M   'P 1'
_cell_length_a   7.13458555
_cell_length_b   7.55339237
_cell_length_c   10.10266548
_cell_angle_alpha   89.99206459
_cell_angle_beta   88.78057641
_cell_angle_gamma   89.99871898
_symmetry_Int_Tables_number   1
_chemical_formula_structural   Li7NbS6
_chemical_formula_sum   'Li14 Nb2 S12'
_cell_volume   544.31261138
_cell_formula_units_Z   2
loop_
 _symmetry_equiv_pos_site_id
 _symmetry_equiv_pos_as_xyz
  1  'x, y, z'
loop_
 _atom_site_type_symbol
 _atom_site_label
 _atom_site_symmetry_multiplicity
 _atom_site_fract_x
 _atom_site_fract_y
 _atom_site_fract_z
 _atom_site_occupancy
  Li  Li0  1  0.108172  0.400932  0.292911  1
  Li  Li1  1  0.126909  0.021628  0.316955  1
  Li  Li2  1  0.219012  0.628067  0.030505  1
  Li  Li3  1  0.071154  0.639262  0.488469  1
  Li  Li4  1  0.248371  0.441463  0.702499  1
  Li  Li5  1  0.330055  0.134499  0.583545  1
  Li  Li6  1  0.395366  0.758195  0.228639  1
  Li  Li7  1  0.608219  0.598481  0.792842  1
  Li  Li8  1  0.626806  0.977641  0.817297  1
  Li  Li9  1  0.719093  0.371338  0.530569  1
  Li  Li10  1  0.571226  0.360131  0.988418  1
  Li  Li11  1  0.748358  0.557823  0.202441  1
  Li  Li12  1  0.829907  0.865092  0.083774  1
  Li  Li13  1  0.895390  0.240916  0.728685  1
  Nb  Nb14  1  0.027105  0.233363  0.013446  1
  Nb  Nb15  1  0.526998  0.765890  0.513373  1
  S  S16  1  0.049382  0.717330  0.241357  1
  S  S17  1  0.056539  0.308038  0.521067  1
  S  S18  1  0.002308  0.479730  0.881781  1
  S  S19  1  0.300563  0.233322  0.125426  1
  S  S20  1  0.296321  0.765385  0.672872  1
  S  S21  1  0.478208  0.007441  0.381993  1
  S  S22  1  0.556557  0.691467  0.020964  1
  S  S23  1  0.502373  0.519415  0.381747  1
  S  S24  1  0.549421  0.281997  0.741392  1
  S  S25  1  0.796347  0.233811  0.172902  1
  S  S26  1  0.800467  0.766197  0.625318  1
  S  S27  1  0.978362  0.991720  0.882142  1
