# generated using pymatgen
data_Na(SiO2)3
_symmetry_space_group_name_H-M   'P 1'
_cell_length_a   12.01560890
_cell_length_b   12.01560890
_cell_length_c   12.01560890
_cell_angle_alpha   90.00000000
_cell_angle_beta   90.00000000
_cell_angle_gamma   90.00000000
_symmetry_Int_Tables_number   1
_chemical_formula_structural   Na(SiO2)3
_chemical_formula_sum   'Na8 Si24 O48'
_cell_volume   1734.75181956
_cell_formula_units_Z   8
loop_
 _symmetry_equiv_pos_site_id
 _symmetry_equiv_pos_as_xyz
  1  'x, y, z'
loop_
 _atom_site_type_symbol
 _atom_site_label
 _atom_site_symmetry_multiplicity
 _atom_site_fract_x
 _atom_site_fract_y
 _atom_site_fract_z
 _atom_site_occupancy
  Na  Na0  1  0.213836  0.213836  0.213836  1
  Na  Na1  1  0.786164  0.786164  0.786164  1
  Na  Na2  1  0.786164  0.786164  0.213836  1
  Na  Na3  1  0.786164  0.213836  0.786164  1
  Na  Na4  1  0.213836  0.213836  0.786164  1
  Na  Na5  1  0.213836  0.786164  0.213836  1
  Na  Na6  1  0.213836  0.786164  0.786164  1
  Na  Na7  1  0.786164  0.213836  0.213836  1
  Si  Si8  1  0.000000  0.181685  0.375171  1
  Si  Si9  1  0.000000  0.818315  0.624829  1
  Si  Si10  1  0.000000  0.818315  0.375171  1
  Si  Si11  1  0.000000  0.181685  0.624829  1
  Si  Si12  1  0.375171  0.000000  0.181685  1
  Si  Si13  1  0.181685  0.000000  0.624829  1
  Si  Si14  1  0.624829  0.000000  0.818315  1
  Si  Si15  1  0.818315  0.000000  0.375171  1
  Si  Si16  1  0.375171  0.000000  0.818315  1
  Si  Si17  1  0.818315  0.000000  0.624829  1
  Si  Si18  1  0.624829  0.000000  0.181685  1
  Si  Si19  1  0.181685  0.000000  0.375171  1
  Si  Si20  1  0.181685  0.375171  0.000000  1
  Si  Si21  1  0.000000  0.375171  0.818315  1
  Si  Si22  1  0.818315  0.624829  0.000000  1
  Si  Si23  1  0.000000  0.624829  0.181685  1
  Si  Si24  1  0.181685  0.624829  0.000000  1
  Si  Si25  1  0.000000  0.624829  0.818315  1
  Si  Si26  1  0.818315  0.375171  0.000000  1
  Si  Si27  1  0.000000  0.375171  0.181685  1
  Si  Si28  1  0.624829  0.181685  0.000000  1
  Si  Si29  1  0.375171  0.818315  0.000000  1
  Si  Si30  1  0.624829  0.818315  0.000000  1
  Si  Si31  1  0.375171  0.181685  0.000000  1
  O  O32  1  0.236052  0.500000  0.000000  1
  O  O33  1  0.763948  0.500000  0.000000  1
  O  O34  1  0.000000  0.236052  0.500000  1
  O  O35  1  0.500000  0.236052  0.000000  1
  O  O36  1  0.000000  0.763948  0.500000  1
  O  O37  1  0.500000  0.763948  0.000000  1
  O  O38  1  0.500000  0.000000  0.236052  1
  O  O39  1  0.236052  0.000000  0.500000  1
  O  O40  1  0.500000  0.000000  0.763948  1
  O  O41  1  0.763948  0.000000  0.500000  1
  O  O42  1  0.000000  0.500000  0.236052  1
  O  O43  1  0.000000  0.500000  0.763948  1
  O  O44  1  0.116510  0.116510  0.339452  1
  O  O45  1  0.883490  0.883490  0.660548  1
  O  O46  1  0.883490  0.883490  0.339452  1
  O  O47  1  0.883490  0.116510  0.660548  1
  O  O48  1  0.339452  0.116510  0.116510  1
  O  O49  1  0.116510  0.116510  0.660548  1
  O  O50  1  0.116510  0.883490  0.339452  1
  O  O51  1  0.660548  0.883490  0.883490  1
  O  O52  1  0.116510  0.883490  0.660548  1
  O  O53  1  0.339452  0.883490  0.883490  1
  O  O54  1  0.883490  0.116510  0.339452  1
  O  O55  1  0.660548  0.116510  0.116510  1
  O  O56  1  0.660548  0.883490  0.116510  1
  O  O57  1  0.339452  0.116510  0.883490  1
  O  O58  1  0.660548  0.116510  0.883490  1
  O  O59  1  0.339452  0.883490  0.116510  1
  O  O60  1  0.116510  0.339452  0.116510  1
  O  O61  1  0.116510  0.339452  0.883490  1
  O  O62  1  0.883490  0.660548  0.883490  1
  O  O63  1  0.883490  0.660548  0.116510  1
  O  O64  1  0.116510  0.660548  0.883490  1
  O  O65  1  0.883490  0.339452  0.116510  1
  O  O66  1  0.116510  0.660548  0.116510  1
  O  O67  1  0.883490  0.339452  0.883490  1
  O  O68  1  0.000000  0.289022  0.289022  1
  O  O69  1  0.000000  0.710978  0.710978  1
  O  O70  1  0.000000  0.710978  0.289022  1
  O  O71  1  0.000000  0.289022  0.710978  1
  O  O72  1  0.289022  0.000000  0.289022  1
  O  O73  1  0.289022  0.000000  0.710978  1
  O  O74  1  0.710978  0.000000  0.710978  1
  O  O75  1  0.710978  0.000000  0.289022  1
  O  O76  1  0.289022  0.289022  0.000000  1
  O  O77  1  0.710978  0.710978  0.000000  1
  O  O78  1  0.289022  0.710978  0.000000  1
  O  O79  1  0.710978  0.289022  0.000000  1
