# generated using pymatgen
data_Te2W3Se4
_symmetry_space_group_name_H-M   'P 1'
_cell_length_a   3.39614328
_cell_length_b   3.39606991
_cell_length_c   31.47437894
_cell_angle_alpha   89.99981588
_cell_angle_beta   90.00000000
_cell_angle_gamma   120.00071463
_symmetry_Int_Tables_number   1
_chemical_formula_structural   Te2W3Se4
_chemical_formula_sum   'Te2 W3 Se4'
_cell_volume   314.37449185
_cell_formula_units_Z   1
loop_
 _symmetry_equiv_pos_site_id
 _symmetry_equiv_pos_as_xyz
  1  'x, y, z'
loop_
 _atom_site_type_symbol
 _atom_site_label
 _atom_site_symmetry_multiplicity
 _atom_site_fract_x
 _atom_site_fract_y
 _atom_site_fract_z
 _atom_site_occupancy
  Te  Te0  1  0.666646  0.333290  0.518478  1
  Te  Te1  1  0.666645  0.333289  0.638154  1
  W  W2  1  0.333311  0.666623  0.115652  1
  W  W3  1  0.333311  0.666622  0.578313  1
  W  W4  1  0.666685  0.333370  0.346960  1
  Se  Se5  1  0.333362  0.666726  0.399555  1
  Se  Se6  1  0.666644  0.333287  0.063092  1
  Se  Se7  1  0.666645  0.333288  0.168238  1
  Se  Se8  1  0.333353  0.666706  0.294400  1
