# generated using pymatgen
data_NaU2Cl6
_symmetry_space_group_name_H-M   'P 1'
_cell_length_a   7.73044440
_cell_length_b   15.62056260
_cell_length_c   4.10953532
_cell_angle_alpha   90.31173286
_cell_angle_beta   89.74530242
_cell_angle_gamma   120.18604979
_symmetry_Int_Tables_number   1
_chemical_formula_structural   NaU2Cl6
_chemical_formula_sum   'Na2 U4 Cl12'
_cell_volume   428.94335993
_cell_formula_units_Z   2
loop_
 _symmetry_equiv_pos_site_id
 _symmetry_equiv_pos_as_xyz
  1  'x, y, z'
loop_
 _atom_site_type_symbol
 _atom_site_label
 _atom_site_symmetry_multiplicity
 _atom_site_fract_x
 _atom_site_fract_y
 _atom_site_fract_z
 _atom_site_occupancy
  Na  Na0  1  0.999321  0.998920  0.000376  1
  Na  Na1  1  -0.000285  0.499954  0.502071  1
  U  U2  1  0.332312  0.833462  0.245154  1
  U  U3  1  0.330682  0.331807  0.248900  1
  U  U4  1  0.664286  0.666854  0.749792  1
  U  U5  1  0.667634  0.166360  0.748118  1
  Cl  Cl6  1  0.307089  0.962199  0.748758  1
  Cl  Cl7  1  0.086563  0.691674  0.748228  1
  Cl  Cl8  1  0.384865  0.650887  0.250402  1
  Cl  Cl9  1  0.621181  0.850106  0.748269  1
  Cl  Cl10  1  0.306154  0.461720  0.750522  1
  Cl  Cl11  1  0.080359  0.190662  0.751711  1
  Cl  Cl12  1  0.925022  0.809466  0.249006  1
  Cl  Cl13  1  0.702185  0.541337  0.248048  1
  Cl  Cl14  1  0.385189  0.153266  0.250684  1
  Cl  Cl15  1  0.617134  0.350127  0.749986  1
  Cl  Cl16  1  0.920926  0.310187  0.252690  1
  Cl  Cl17  1  0.704835  0.043247  0.251968  1
