# generated using pymatgen
data_Cs3AlCl6
_symmetry_space_group_name_H-M   'P 1'
_cell_length_a   7.95326883
_cell_length_b   7.95326921
_cell_length_c   7.95326920
_cell_angle_alpha   59.99999874
_cell_angle_beta   59.99999820
_cell_angle_gamma   59.99999826
_symmetry_Int_Tables_number   1
_chemical_formula_structural   Cs3AlCl6
_chemical_formula_sum   'Cs3 Al1 Cl6'
_cell_volume   355.73124665
_cell_formula_units_Z   1
loop_
 _symmetry_equiv_pos_site_id
 _symmetry_equiv_pos_as_xyz
  1  'x, y, z'
loop_
 _atom_site_type_symbol
 _atom_site_label
 _atom_site_symmetry_multiplicity
 _atom_site_fract_x
 _atom_site_fract_y
 _atom_site_fract_z
 _atom_site_occupancy
  Cs  Cs0  1  0.250000  0.250000  0.250000  1
  Cs  Cs1  1  0.750000  0.750000  0.750000  1
  Cs  Cs2  1  0.500000  0.500000  0.500000  1
  Al  Al3  1  0.000000  0.000000  -0.000000  1
  Cl  Cl4  1  0.209138  0.790862  0.209138  1
  Cl  Cl5  1  0.790862  0.790862  0.209138  1
  Cl  Cl6  1  0.790862  0.209138  0.790862  1
  Cl  Cl7  1  0.790862  0.209138  0.209138  1
  Cl  Cl8  1  0.209138  0.790862  0.790862  1
  Cl  Cl9  1  0.209138  0.209138  0.790862  1
