# generated using pymatgen
data_Rb3Sb2I9
_symmetry_space_group_name_H-M   'P 1'
_cell_length_a   8.42643173
_cell_length_b   15.03050895
_cell_length_c   21.13849180
_cell_angle_alpha   88.92221149
_cell_angle_beta   90.00000000
_cell_angle_gamma   90.00000000
_symmetry_Int_Tables_number   1
_chemical_formula_structural   Rb3Sb2I9
_chemical_formula_sum   'Rb12 Sb8 I36'
_cell_volume   2676.79152356
_cell_formula_units_Z   4
loop_
 _symmetry_equiv_pos_site_id
 _symmetry_equiv_pos_as_xyz
  1  'x, y, z'
loop_
 _atom_site_type_symbol
 _atom_site_label
 _atom_site_symmetry_multiplicity
 _atom_site_fract_x
 _atom_site_fract_y
 _atom_site_fract_z
 _atom_site_occupancy
  Rb  Rb0  1  0.262498  0.362207  0.634430  1
  Rb  Rb1  1  0.737502  0.862207  0.134430  1
  Rb  Rb2  1  0.786786  0.901087  0.680534  1
  Rb  Rb3  1  0.213214  0.401087  0.180534  1
  Rb  Rb4  1  0.724142  0.517569  0.796464  1
  Rb  Rb5  1  0.275858  0.017569  0.296464  1
  Rb  Rb6  1  0.771559  0.580336  0.349163  1
  Rb  Rb7  1  0.228441  0.080336  0.849163  1
  Rb  Rb8  1  0.760029  0.231887  0.007094  1
  Rb  Rb9  1  0.239971  0.731887  0.507094  1
  Rb  Rb10  1  0.723759  0.195316  0.465177  1
  Rb  Rb11  1  0.276241  0.695316  0.965177  1
  Sb  Sb12  1  0.755529  0.881092  0.909875  1
  Sb  Sb13  1  0.244471  0.381092  0.409875  1
  Sb  Sb14  1  0.743078  0.887804  0.413624  1
  Sb  Sb15  1  0.256922  0.387804  0.913624  1
  Sb  Sb16  1  0.260116  0.716820  0.729937  1
  Sb  Sb17  1  0.739884  0.216820  0.229937  1
  Sb  Sb18  1  0.753285  0.216620  0.730280  1
  Sb  Sb19  1  0.246715  0.716620  0.230280  1
  I  I20  1  0.568560  0.751781  0.815724  1
  I  I21  1  0.431440  0.251781  0.315724  1
  I  I22  1  0.948545  0.292544  0.851265  1
  I  I23  1  0.051455  0.792544  0.351265  1
  I  I24  1  0.551125  0.143806  0.632402  1
  I  I25  1  0.448875  0.643806  0.132402  1
  I  I26  1  0.962073  0.630556  0.182777  1
  I  I27  1  0.037927  0.130556  0.682777  1
  I  I28  1  0.820914  0.724706  0.988322  1
  I  I29  1  0.179086  0.224706  0.488322  1
  I  I30  1  0.543731  0.475154  0.958131  1
  I  I31  1  0.456269  0.975154  0.458131  1
  I  I32  1  0.333023  0.871060  0.650943  1
  I  I33  1  0.666977  0.371060  0.150943  1
  I  I34  1  0.945154  0.996470  0.990482  1
  I  I35  1  0.054846  0.496470  0.490482  1
  I  I36  1  0.670988  0.046772  0.817606  1
  I  I37  1  0.329012  0.546772  0.317606  1
  I  I38  1  0.832374  0.055336  0.325173  1
  I  I39  1  0.167626  0.555336  0.825173  1
  I  I40  1  0.453543  0.598069  0.653820  1
  I  I41  1  0.546457  0.098069  0.153820  1
  I  I42  1  0.687583  0.727171  0.489929  1
  I  I43  1  0.312417  0.227171  0.989929  1
  I  I44  1  0.443748  0.306760  0.793478  1
  I  I45  1  0.556252  0.806760  0.293478  1
  I  I46  1  0.466585  0.921509  0.980262  1
  I  I47  1  0.533415  0.421509  0.480262  1
  I  I48  1  0.976431  0.676205  0.656491  1
  I  I49  1  0.023569  0.176205  0.156491  1
  I  I50  1  0.931473  0.347647  0.324223  1
  I  I51  1  0.068527  0.847647  0.824223  1
  I  I52  1  0.809541  0.378699  0.655406  1
  I  I53  1  0.190459  0.878699  0.155406  1
  I  I54  1  0.937544  0.964316  0.512588  1
  I  I55  1  0.062456  0.464316  0.012588  1
