# generated using pymatgen
data_MoWS4
_symmetry_space_group_name_H-M   'P 1'
_cell_length_a   3.19108162
_cell_length_b   3.19109492
_cell_length_c   35.83878565
_cell_angle_alpha   90.00008489
_cell_angle_beta   90.00000000
_cell_angle_gamma   119.99986209
_symmetry_Int_Tables_number   1
_chemical_formula_structural   MoWS4
_chemical_formula_sum   'Mo2 W2 S8'
_cell_volume   316.05462977
_cell_formula_units_Z   2
loop_
 _symmetry_equiv_pos_site_id
 _symmetry_equiv_pos_as_xyz
  1  'x, y, z'
loop_
 _atom_site_type_symbol
 _atom_site_label
 _atom_site_symmetry_multiplicity
 _atom_site_fract_x
 _atom_site_fract_y
 _atom_site_fract_z
 _atom_site_occupancy
  Mo  Mo0  1  0.333309  0.666618  0.093893  1
  Mo  Mo1  1  0.333308  0.666616  0.469655  1
  W  W2  1  0.666696  0.333391  0.281784  1
  W  W3  1  0.666692  0.333385  0.657552  1
  S  S4  1  0.333350  0.666702  0.325685  1
  S  S5  1  0.333351  0.666704  0.701433  1
  S  S6  1  0.666648  0.333294  0.050250  1
  S  S7  1  0.666648  0.333296  0.426012  1
  S  S8  1  0.666647  0.333293  0.137595  1
  S  S9  1  0.666647  0.333294  0.513305  1
  S  S10  1  0.333351  0.666702  0.237932  1
  S  S11  1  0.333352  0.666705  0.613651  1
