# generated using pymatgen
data_Sm6Mg23C
_symmetry_space_group_name_H-M   'P 1'
_cell_length_a   10.10010923
_cell_length_b   10.10010923
_cell_length_c   10.10010923
_cell_angle_alpha   60.00000000
_cell_angle_beta   60.00000000
_cell_angle_gamma   60.00000000
_symmetry_Int_Tables_number   1
_chemical_formula_structural   Sm6Mg23C
_chemical_formula_sum   'Sm6 Mg23 C1'
_cell_volume   728.55646178
_cell_formula_units_Z   1
loop_
 _symmetry_equiv_pos_site_id
 _symmetry_equiv_pos_as_xyz
  1  'x, y, z'
loop_
 _atom_site_type_symbol
 _atom_site_label
 _atom_site_symmetry_multiplicity
 _atom_site_fract_x
 _atom_site_fract_y
 _atom_site_fract_z
 _atom_site_occupancy
  Sm  Sm0  1  0.816986  0.183014  0.183014  1
  Sm  Sm1  1  0.816986  0.183014  0.816986  1
  Sm  Sm2  1  0.816986  0.816986  0.183014  1
  Sm  Sm3  1  0.183014  0.816986  0.816986  1
  Sm  Sm4  1  0.183014  0.816986  0.183014  1
  Sm  Sm5  1  0.183014  0.183014  0.816986  1
  Mg  Mg6  1  0.489694  0.170102  0.170102  1
  Mg  Mg7  1  0.170102  0.489694  0.170102  1
  Mg  Mg8  1  0.170102  0.170102  0.489694  1
  Mg  Mg9  1  0.170102  0.170102  0.170102  1
  Mg  Mg10  1  0.510306  0.829898  0.829898  1
  Mg  Mg11  1  0.829898  0.510306  0.829898  1
  Mg  Mg12  1  0.829898  0.829898  0.510306  1
  Mg  Mg13  1  0.829898  0.829898  0.829898  1
  Mg  Mg14  1  0.860771  0.379743  0.379743  1
  Mg  Mg15  1  0.379743  0.860771  0.379743  1
  Mg  Mg16  1  0.379743  0.379743  0.860771  1
  Mg  Mg17  1  0.379743  0.379743  0.379743  1
  Mg  Mg18  1  0.139229  0.620257  0.620257  1
  Mg  Mg19  1  0.620257  0.139229  0.620257  1
  Mg  Mg20  1  0.620257  0.620257  0.139229  1
  Mg  Mg21  1  0.620257  0.620257  0.620257  1
  Mg  Mg22  1  0.500000  0.000000  -0.000000  1
  Mg  Mg23  1  0.500000  0.000000  0.500000  1
  Mg  Mg24  1  0.500000  0.500000  -0.000000  1
  Mg  Mg25  1  0.000000  0.500000  0.500000  1
  Mg  Mg26  1  0.000000  0.500000  -0.000000  1
  Mg  Mg27  1  0.000000  0.000000  0.500000  1
  Mg  Mg28  1  0.500000  0.500000  0.500000  1
  C  C29  1  0.000000  0.000000  -0.000000  1
