# generated using pymatgen
data_Zr6Al16Pt7
_symmetry_space_group_name_H-M   'P 1'
_cell_length_a   8.79885208
_cell_length_b   8.79885208
_cell_length_c   8.79885208
_cell_angle_alpha   60.00000000
_cell_angle_beta   60.00000000
_cell_angle_gamma   60.00000000
_symmetry_Int_Tables_number   1
_chemical_formula_structural   Zr6Al16Pt7
_chemical_formula_sum   'Zr6 Al16 Pt7'
_cell_volume   481.68492181
_cell_formula_units_Z   1
loop_
 _symmetry_equiv_pos_site_id
 _symmetry_equiv_pos_as_xyz
  1  'x, y, z'
loop_
 _atom_site_type_symbol
 _atom_site_label
 _atom_site_symmetry_multiplicity
 _atom_site_fract_x
 _atom_site_fract_y
 _atom_site_fract_z
 _atom_site_occupancy
  Zr  Zr0  1  0.685995  0.314005  0.314005  1
  Zr  Zr1  1  0.685995  0.314005  0.685995  1
  Zr  Zr2  1  0.685995  0.685995  0.314005  1
  Zr  Zr3  1  0.314005  0.685995  0.685995  1
  Zr  Zr4  1  0.314005  0.685995  0.314005  1
  Zr  Zr5  1  0.314005  0.314005  0.685995  1
  Al  Al6  1  0.639235  0.120255  0.120255  1
  Al  Al7  1  0.120255  0.639235  0.120255  1
  Al  Al8  1  0.120255  0.120255  0.639235  1
  Al  Al9  1  0.120255  0.120255  0.120255  1
  Al  Al10  1  0.360765  0.879745  0.879745  1
  Al  Al11  1  0.879745  0.360765  0.879745  1
  Al  Al12  1  0.879745  0.879745  0.360765  1
  Al  Al13  1  0.879745  0.879745  0.879745  1
  Al  Al14  1  0.996148  0.334617  0.334617  1
  Al  Al15  1  0.334617  0.996148  0.334617  1
  Al  Al16  1  0.334617  0.334617  0.996148  1
  Al  Al17  1  0.334617  0.334617  0.334617  1
  Al  Al18  1  0.003852  0.665383  0.665383  1
  Al  Al19  1  0.665383  0.003852  0.665383  1
  Al  Al20  1  0.665383  0.665383  0.003852  1
  Al  Al21  1  0.665383  0.665383  0.665383  1
  Pt  Pt22  1  0.000000  0.000000  -0.000000  1
  Pt  Pt23  1  0.500000  0.000000  -0.000000  1
  Pt  Pt24  1  0.500000  0.000000  0.500000  1
  Pt  Pt25  1  0.500000  0.500000  -0.000000  1
  Pt  Pt26  1  0.000000  0.500000  0.500000  1
  Pt  Pt27  1  0.000000  0.500000  -0.000000  1
  Pt  Pt28  1  0.000000  0.000000  0.500000  1
