# generated using pymatgen
data_GdErRu2
_symmetry_space_group_name_H-M   'P 1'
_cell_length_a   4.81568302
_cell_length_b   4.81562618
_cell_length_c   4.81544149
_cell_angle_alpha   60.01206005
_cell_angle_beta   60.00024754
_cell_angle_gamma   60.00706860
_symmetry_Int_Tables_number   1
_chemical_formula_structural   GdErRu2
_chemical_formula_sum   'Gd1 Er1 Ru2'
_cell_volume   78.97603968
_cell_formula_units_Z   1
loop_
 _symmetry_equiv_pos_site_id
 _symmetry_equiv_pos_as_xyz
  1  'x, y, z'
loop_
 _atom_site_type_symbol
 _atom_site_label
 _atom_site_symmetry_multiplicity
 _atom_site_fract_x
 _atom_site_fract_y
 _atom_site_fract_z
 _atom_site_occupancy
  Gd  Gd0  1  0.749996  0.750003  0.750000  1
  Er  Er1  1  0.250002  0.249998  0.249999  1
  Ru  Ru2  1  -0.000033  0.000046  -0.000019  1
  Ru  Ru3  1  0.500035  0.499952  0.500018  1
