# generated using pymatgen
data_Hf6Be15Pd8
_symmetry_space_group_name_H-M   'P 1'
_cell_length_a   8.06768017
_cell_length_b   8.06768017
_cell_length_c   8.06768017
_cell_angle_alpha   60.00000000
_cell_angle_beta   60.00000000
_cell_angle_gamma   60.00000000
_symmetry_Int_Tables_number   1
_chemical_formula_structural   Hf6Be15Pd8
_chemical_formula_sum   'Hf6 Be15 Pd8'
_cell_volume   371.30519186
_cell_formula_units_Z   1
loop_
 _symmetry_equiv_pos_site_id
 _symmetry_equiv_pos_as_xyz
  1  'x, y, z'
loop_
 _atom_site_type_symbol
 _atom_site_label
 _atom_site_symmetry_multiplicity
 _atom_site_fract_x
 _atom_site_fract_y
 _atom_site_fract_z
 _atom_site_occupancy
  Hf  Hf0  1  0.696989  0.696989  0.303011  1
  Hf  Hf1  1  0.303011  0.303011  0.696989  1
  Hf  Hf2  1  0.696989  0.303011  0.696989  1
  Hf  Hf3  1  0.303011  0.696989  0.303011  1
  Hf  Hf4  1  0.303011  0.696989  0.696989  1
  Hf  Hf5  1  0.696989  0.303011  0.303011  1
  Be  Be6  1  0.673332  0.673332  0.673332  1
  Be  Be7  1  0.326668  0.326668  0.326668  1
  Be  Be8  1  0.980004  0.673332  0.673332  1
  Be  Be9  1  0.673332  0.980004  0.673332  1
  Be  Be10  1  0.019996  0.326668  0.326668  1
  Be  Be11  1  0.326668  0.019996  0.326668  1
  Be  Be12  1  0.673332  0.673332  0.980004  1
  Be  Be13  1  0.326668  0.326668  0.019996  1
  Be  Be14  1  0.000000  0.000000  0.500000  1
  Be  Be15  1  0.500000  0.500000  -0.000000  1
  Be  Be16  1  0.000000  0.500000  -0.000000  1
  Be  Be17  1  0.500000  0.000000  0.500000  1
  Be  Be18  1  0.500000  0.000000  -0.000000  1
  Be  Be19  1  0.000000  0.500000  0.500000  1
  Be  Be20  1  0.000000  0.000000  -0.000000  1
  Pd  Pd21  1  0.874880  0.874880  0.874880  1
  Pd  Pd22  1  0.125120  0.125120  0.125120  1
  Pd  Pd23  1  0.375360  0.874880  0.874880  1
  Pd  Pd24  1  0.874880  0.375360  0.874880  1
  Pd  Pd25  1  0.624640  0.125120  0.125120  1
  Pd  Pd26  1  0.125120  0.624640  0.125120  1
  Pd  Pd27  1  0.874880  0.874880  0.375360  1
  Pd  Pd28  1  0.125120  0.125120  0.624640  1
