# generated using pymatgen
data_Ti6Al16Ru7
_symmetry_space_group_name_H-M   'P 1'
_cell_length_a   8.61315909
_cell_length_b   8.61315909
_cell_length_c   8.61315909
_cell_angle_alpha   60.00000000
_cell_angle_beta   60.00000000
_cell_angle_gamma   60.00000000
_symmetry_Int_Tables_number   1
_chemical_formula_structural   Ti6Al16Ru7
_chemical_formula_sum   'Ti6 Al16 Ru7'
_cell_volume   451.82723865
_cell_formula_units_Z   1
loop_
 _symmetry_equiv_pos_site_id
 _symmetry_equiv_pos_as_xyz
  1  'x, y, z'
loop_
 _atom_site_type_symbol
 _atom_site_label
 _atom_site_symmetry_multiplicity
 _atom_site_fract_x
 _atom_site_fract_y
 _atom_site_fract_z
 _atom_site_occupancy
  Ti  Ti0  1  0.707623  0.292377  0.292377  1
  Ti  Ti1  1  0.707623  0.292377  0.707623  1
  Ti  Ti2  1  0.707623  0.707623  0.292377  1
  Ti  Ti3  1  0.292377  0.707623  0.707623  1
  Ti  Ti4  1  0.292377  0.707623  0.292377  1
  Ti  Ti5  1  0.292377  0.292377  0.707623  1
  Al  Al6  1  0.639342  0.120219  0.120219  1
  Al  Al7  1  0.120219  0.639342  0.120219  1
  Al  Al8  1  0.120219  0.120219  0.639342  1
  Al  Al9  1  0.120219  0.120219  0.120219  1
  Al  Al10  1  0.360658  0.879781  0.879781  1
  Al  Al11  1  0.879781  0.360658  0.879781  1
  Al  Al12  1  0.879781  0.879781  0.360658  1
  Al  Al13  1  0.879781  0.879781  0.879781  1
  Al  Al14  1  0.972638  0.342454  0.342454  1
  Al  Al15  1  0.342454  0.972638  0.342454  1
  Al  Al16  1  0.342454  0.342454  0.972638  1
  Al  Al17  1  0.342454  0.342454  0.342454  1
  Al  Al18  1  0.027362  0.657546  0.657546  1
  Al  Al19  1  0.657546  0.027362  0.657546  1
  Al  Al20  1  0.657546  0.657546  0.027362  1
  Al  Al21  1  0.657546  0.657546  0.657546  1
  Ru  Ru22  1  -0.000000  -0.000000  0.000000  1
  Ru  Ru23  1  0.500000  -0.000000  0.000000  1
  Ru  Ru24  1  0.500000  -0.000000  0.500000  1
  Ru  Ru25  1  0.500000  0.500000  0.000000  1
  Ru  Ru26  1  -0.000000  0.500000  0.500000  1
  Ru  Ru27  1  -0.000000  0.500000  0.000000  1
  Ru  Ru28  1  -0.000000  -0.000000  0.500000  1
