# generated using pymatgen
data_Sc6Al16Ni7
_symmetry_space_group_name_H-M   'P 1'
_cell_length_a   8.53691601
_cell_length_b   8.53691601
_cell_length_c   8.53691601
_cell_angle_alpha   60.00000000
_cell_angle_beta   60.00000000
_cell_angle_gamma   60.00000000
_symmetry_Int_Tables_number   1
_chemical_formula_structural   Sc6Al16Ni7
_chemical_formula_sum   'Sc6 Al16 Ni7'
_cell_volume   439.93450698
_cell_formula_units_Z   1
loop_
 _symmetry_equiv_pos_site_id
 _symmetry_equiv_pos_as_xyz
  1  'x, y, z'
loop_
 _atom_site_type_symbol
 _atom_site_label
 _atom_site_symmetry_multiplicity
 _atom_site_fract_x
 _atom_site_fract_y
 _atom_site_fract_z
 _atom_site_occupancy
  Sc  Sc0  1  0.695859  0.304141  0.304141  1
  Sc  Sc1  1  0.695859  0.304141  0.695859  1
  Sc  Sc2  1  0.695859  0.695859  0.304141  1
  Sc  Sc3  1  0.304141  0.695859  0.695859  1
  Sc  Sc4  1  0.304141  0.695859  0.304141  1
  Sc  Sc5  1  0.304141  0.304141  0.695859  1
  Al  Al6  1  0.641784  0.119405  0.119405  1
  Al  Al7  1  0.119405  0.641784  0.119405  1
  Al  Al8  1  0.119405  0.119405  0.641784  1
  Al  Al9  1  0.119405  0.119405  0.119405  1
  Al  Al10  1  0.358216  0.880595  0.880595  1
  Al  Al11  1  0.880595  0.358216  0.880595  1
  Al  Al12  1  0.880595  0.880595  0.358216  1
  Al  Al13  1  0.880595  0.880595  0.880595  1
  Al  Al14  1  0.999083  0.333639  0.333639  1
  Al  Al15  1  0.333639  0.999083  0.333639  1
  Al  Al16  1  0.333639  0.333639  0.999083  1
  Al  Al17  1  0.333639  0.333639  0.333639  1
  Al  Al18  1  0.000917  0.666361  0.666361  1
  Al  Al19  1  0.666361  0.000917  0.666361  1
  Al  Al20  1  0.666361  0.666361  0.000917  1
  Al  Al21  1  0.666361  0.666361  0.666361  1
  Ni  Ni22  1  -0.000000  0.000000  0.000000  1
  Ni  Ni23  1  0.500000  0.000000  0.000000  1
  Ni  Ni24  1  0.500000  0.000000  0.500000  1
  Ni  Ni25  1  0.500000  0.500000  0.000000  1
  Ni  Ni26  1  -0.000000  0.500000  0.500000  1
  Ni  Ni27  1  -0.000000  0.500000  0.000000  1
  Ni  Ni28  1  -0.000000  0.000000  0.500000  1
