# generated using pymatgen
data_Sr2AlIn3
_symmetry_space_group_name_H-M   'P 1'
_cell_length_a   5.01540018
_cell_length_b   5.01540018
_cell_length_c   8.02800311
_cell_angle_alpha   90.00104240
_cell_angle_beta   89.99895760
_cell_angle_gamma   120.00586718
_symmetry_Int_Tables_number   1
_chemical_formula_structural   Sr2AlIn3
_chemical_formula_sum   'Sr2 Al1 In3'
_cell_volume   174.87336523
_cell_formula_units_Z   1
loop_
 _symmetry_equiv_pos_site_id
 _symmetry_equiv_pos_as_xyz
  1  'x, y, z'
loop_
 _atom_site_type_symbol
 _atom_site_label
 _atom_site_symmetry_multiplicity
 _atom_site_fract_x
 _atom_site_fract_y
 _atom_site_fract_z
 _atom_site_occupancy
  Sr  Sr0  1  0.000005  0.999995  0.744988  1
  Sr  Sr1  1  0.999965  0.000035  0.251989  1
  Al  Al2  1  0.333331  0.666669  0.547686  1
  In  In3  1  0.666683  0.333317  0.461759  1
  In  In4  1  0.666655  0.333345  0.045971  1
  In  In5  1  0.333362  0.666638  0.947607  1
