# generated using pymatgen
data_InGaS3
_symmetry_space_group_name_H-M   'P 1'
_cell_length_a   3.93370153
_cell_length_b   3.93370130
_cell_length_c   18.88880862
_cell_angle_alpha   90.05581639
_cell_angle_beta   90.05581638
_cell_angle_gamma   60.05202806
_symmetry_Int_Tables_number   1
_chemical_formula_structural   InGaS3
_chemical_formula_sum   'In2 Ga2 S6'
_cell_volume   253.25915626
_cell_formula_units_Z   2
loop_
 _symmetry_equiv_pos_site_id
 _symmetry_equiv_pos_as_xyz
  1  'x, y, z'
loop_
 _atom_site_type_symbol
 _atom_site_label
 _atom_site_symmetry_multiplicity
 _atom_site_fract_x
 _atom_site_fract_y
 _atom_site_fract_z
 _atom_site_occupancy
  In  In0  1  0.000008  0.000008  0.506735  1
  In  In1  1  0.333346  0.333346  0.866340  1
  Ga  Ga2  1  0.666617  0.666617  0.121820  1
  Ga  Ga3  1  0.333580  0.333580  0.300202  1
  S  S4  1  0.666537  0.666537  0.253062  1
  S  S5  1  0.333340  0.333340  0.740587  1
  S  S6  1  0.333064  0.333064  0.417423  1
  S  S7  1  0.666695  0.666695  0.568678  1
  S  S8  1  0.333263  0.333263  0.090183  1
  S  S9  1  0.666850  0.666850  0.928371  1
