# generated using pymatgen
data_SNO4
_symmetry_space_group_name_H-M   'P 1'
_cell_length_a   5.05424199
_cell_length_b   16.50866347
_cell_length_c   16.58887713
_cell_angle_alpha   119.71421322
_cell_angle_beta   90.00000000
_cell_angle_gamma   90.00000000
_symmetry_Int_Tables_number   1
_chemical_formula_structural   SNO4
_chemical_formula_sum   'S8 N8 O32'
_cell_volume   1202.15107670
_cell_formula_units_Z   8
loop_
 _symmetry_equiv_pos_site_id
 _symmetry_equiv_pos_as_xyz
  1  'x, y, z'
loop_
 _atom_site_type_symbol
 _atom_site_label
 _atom_site_symmetry_multiplicity
 _atom_site_fract_x
 _atom_site_fract_y
 _atom_site_fract_z
 _atom_site_occupancy
  S  S0  1  0.958801  0.339561  0.449261  1
  S  S1  1  0.041199  0.839561  0.949261  1
  S  S2  1  0.020312  0.125760  0.665282  1
  S  S3  1  0.979688  0.625760  0.165282  1
  S  S4  1  0.543425  0.726036  0.482379  1
  S  S5  1  0.456575  0.226036  0.982379  1
  S  S6  1  0.479199  0.938848  0.265389  1
  S  S7  1  0.520801  0.438848  0.765389  1
  N  N8  1  0.890012  0.092584  0.197691  1
  N  N9  1  0.109988  0.592584  0.697691  1
  N  N10  1  0.047657  0.880111  0.417875  1
  N  N11  1  0.952343  0.380111  0.917875  1
  N  N12  1  0.611037  0.970297  0.715161  1
  N  N13  1  0.388963  0.470297  0.215161  1
  N  N14  1  0.448283  0.184025  0.506504  1
  N  N15  1  0.551717  0.684025  0.006504  1
  O  O16  1  0.866978  0.325800  0.358444  1
  O  O17  1  0.133022  0.825800  0.858444  1
  O  O18  1  0.991963  0.243527  0.431996  1
  O  O19  1  0.008037  0.743527  0.931996  1
  O  O20  1  0.205541  0.395119  0.480127  1
  O  O21  1  0.794459  0.895119  0.980127  1
  O  O22  1  0.771783  0.395765  0.525882  1
  O  O23  1  0.228217  0.895765  0.025882  1
  O  O24  1  0.950516  0.107022  0.570721  1
  O  O25  1  0.049484  0.607022  0.070721  1
  O  O26  1  0.128445  0.035001  0.647622  1
  O  O27  1  0.871555  0.535001  0.147622  1
  O  O28  1  0.212641  0.202813  0.712236  1
  O  O29  1  0.787359  0.702813  0.212236  1
  O  O30  1  0.790253  0.157004  0.728644  1
  O  O31  1  0.209747  0.657004  0.228644  1
  O  O32  1  0.629171  0.724035  0.566727  1
  O  O33  1  0.370829  0.224035  0.066727  1
  O  O34  1  0.556104  0.820425  0.493375  1
  O  O35  1  0.443896  0.320425  0.993375  1
  O  O36  1  0.262483  0.699948  0.459000  1
  O  O37  1  0.737517  0.199948  0.959000  1
  O  O38  1  0.724591  0.659192  0.409337  1
  O  O39  1  0.275409  0.159192  0.909337  1
  O  O40  1  0.561885  0.954335  0.357759  1
  O  O41  1  0.438115  0.454335  0.857759  1
  O  O42  1  0.381019  0.031603  0.286067  1
  O  O43  1  0.618981  0.531603  0.786067  1
  O  O44  1  0.276727  0.864958  0.220275  1
  O  O45  1  0.723273  0.364958  0.720275  1
  O  O46  1  0.699722  0.905230  0.197245  1
  O  O47  1  0.300278  0.405230  0.697245  1
