# generated using pymatgen
data_Mg6NbH16
_symmetry_space_group_name_H-M   'P 1'
_cell_length_a   6.73131365
_cell_length_b   6.73131365
_cell_length_c   6.73131365
_cell_angle_alpha   60.00000000
_cell_angle_beta   60.00000000
_cell_angle_gamma   60.00000000
_symmetry_Int_Tables_number   1
_chemical_formula_structural   Mg6NbH16
_chemical_formula_sum   'Mg6 Nb1 H16'
_cell_volume   215.66739095
_cell_formula_units_Z   1
loop_
 _symmetry_equiv_pos_site_id
 _symmetry_equiv_pos_as_xyz
  1  'x, y, z'
loop_
 _atom_site_type_symbol
 _atom_site_label
 _atom_site_symmetry_multiplicity
 _atom_site_fract_x
 _atom_site_fract_y
 _atom_site_fract_z
 _atom_site_occupancy
  Mg  Mg0  1  0.500000  0.000000  0.000000  1
  Mg  Mg1  1  0.500000  0.000000  0.500000  1
  Mg  Mg2  1  0.500000  0.500000  0.000000  1
  Mg  Mg3  1  0.000000  0.500000  0.500000  1
  Mg  Mg4  1  0.000000  0.500000  0.000000  1
  Mg  Mg5  1  0.000000  0.000000  0.500000  1
  Nb  Nb6  1  0.000000  0.000000  0.000000  1
  H  H7  1  0.653453  0.115516  0.115516  1
  H  H8  1  0.115516  0.653453  0.115516  1
  H  H9  1  0.115516  0.115516  0.653453  1
  H  H10  1  0.115516  0.115516  0.115516  1
  H  H11  1  0.346547  0.884484  0.884484  1
  H  H12  1  0.884484  0.346547  0.884484  1
  H  H13  1  0.884484  0.884484  0.346547  1
  H  H14  1  0.884484  0.884484  0.884484  1
  H  H15  1  0.928937  0.357021  0.357021  1
  H  H16  1  0.357021  0.928937  0.357021  1
  H  H17  1  0.357021  0.357021  0.928937  1
  H  H18  1  0.357021  0.357021  0.357021  1
  H  H19  1  0.071063  0.642979  0.642979  1
  H  H20  1  0.642979  0.071063  0.642979  1
  H  H21  1  0.642979  0.642979  0.071063  1
  H  H22  1  0.642979  0.642979  0.642979  1
