# generated using pymatgen
data_Cs2SbCl6
_symmetry_space_group_name_H-M   'P 1'
_cell_length_a   13.11369082
_cell_length_b   13.11369082
_cell_length_c   13.11369082
_cell_angle_alpha   131.56453745
_cell_angle_beta   131.56453745
_cell_angle_gamma   70.91766831
_symmetry_Int_Tables_number   1
_chemical_formula_structural   Cs2SbCl6
_chemical_formula_sum   'Cs8 Sb4 Cl24'
_cell_volume   1236.36229943
_cell_formula_units_Z   4
loop_
 _symmetry_equiv_pos_site_id
 _symmetry_equiv_pos_as_xyz
  1  'x, y, z'
loop_
 _atom_site_type_symbol
 _atom_site_label
 _atom_site_symmetry_multiplicity
 _atom_site_fract_x
 _atom_site_fract_y
 _atom_site_fract_z
 _atom_site_occupancy
  Cs  Cs0  1  0.500000  0.246816  0.746816  1
  Cs  Cs1  1  0.000000  0.753184  0.753184  1
  Cs  Cs2  1  0.753184  0.500001  0.753184  1
  Cs  Cs3  1  0.246816  -0.000000  0.746816  1
  Cs  Cs4  1  0.500000  0.753184  0.253184  1
  Cs  Cs5  1  -0.000000  0.246816  0.246816  1
  Cs  Cs6  1  0.246816  0.500001  0.246816  1
  Cs  Cs7  1  0.753184  0.000000  0.253184  1
  Sb  Sb8  1  0.625000  0.375000  0.250000  1
  Sb  Sb9  1  0.375000  0.625001  0.750001  1
  Sb  Sb10  1  0.124999  0.875000  0.250000  1
  Sb  Sb11  1  0.875000  0.125000  0.750000  1
  Cl  Cl12  1  0.245478  0.995479  0.250000  1
  Cl  Cl13  1  0.754522  0.004522  0.750001  1
  Cl  Cl14  1  0.004522  0.754522  0.250000  1
  Cl  Cl15  1  0.995479  0.245478  0.750001  1
  Cl  Cl16  1  0.857651  0.375301  0.482350  1
  Cl  Cl17  1  0.392953  0.375301  0.017651  1
  Cl  Cl18  1  0.142350  0.624699  0.517651  1
  Cl  Cl19  1  0.607048  0.624699  0.982350  1
  Cl  Cl20  1  0.624699  0.142349  0.017651  1
  Cl  Cl21  1  0.624699  0.607047  0.482350  1
  Cl  Cl22  1  0.375302  0.857651  0.982350  1
  Cl  Cl23  1  0.375302  0.392953  0.517651  1
  Cl  Cl24  1  0.364306  0.874886  0.489420  1
  Cl  Cl25  1  0.885466  0.874886  0.010581  1
  Cl  Cl26  1  0.635694  0.125114  0.510581  1
  Cl  Cl27  1  0.114534  0.125115  0.989420  1
  Cl  Cl28  1  0.125114  0.635693  0.010580  1
  Cl  Cl29  1  0.125114  0.114534  0.489420  1
  Cl  Cl30  1  0.874886  0.364306  0.989420  1
  Cl  Cl31  1  0.874886  0.885467  0.510581  1
  Cl  Cl32  1  0.507811  0.257811  0.250000  1
  Cl  Cl33  1  0.492189  0.742189  0.750001  1
  Cl  Cl34  1  0.742189  0.492188  0.250000  1
  Cl  Cl35  1  0.257812  0.507812  0.750001  1
