# generated using pymatgen
data_Na(NiO2)2
_symmetry_space_group_name_H-M   'P 1'
_cell_length_a   4.87145276
_cell_length_b   5.77113829
_cell_length_c   11.26110969
_cell_angle_alpha   89.60992349
_cell_angle_beta   90.16075166
_cell_angle_gamma   89.78463990
_symmetry_Int_Tables_number   1
_chemical_formula_structural   Na(NiO2)2
_chemical_formula_sum   'Na4 Ni8 O16'
_cell_volume   316.58205364
_cell_formula_units_Z   4
loop_
 _symmetry_equiv_pos_site_id
 _symmetry_equiv_pos_as_xyz
  1  'x, y, z'
loop_
 _atom_site_type_symbol
 _atom_site_label
 _atom_site_symmetry_multiplicity
 _atom_site_fract_x
 _atom_site_fract_y
 _atom_site_fract_z
 _atom_site_occupancy
  Na  Na0  1  0.015161  0.749880  0.249881  1
  Na  Na1  1  0.358565  0.749981  0.750354  1
  Na  Na2  1  0.641904  0.250079  0.249539  1
  Na  Na3  1  0.986704  0.249980  0.750708  1
  Ni  Ni4  1  0.001614  0.247053  0.003459  1
  Ni  Ni5  1  0.998303  0.752823  0.996499  1
  Ni  Ni6  1  0.000586  0.252412  0.497441  1
  Ni  Ni7  1  0.997938  0.746546  0.503739  1
  Ni  Ni8  1  0.500059  0.499744  -0.000061  1
  Ni  Ni9  1  0.500073  0.000300  -0.000065  1
  Ni  Ni10  1  0.500279  0.002840  0.499975  1
  Ni  Ni11  1  0.500257  0.498087  0.500172  1
  O  O12  1  0.170752  0.012573  0.588884  1
  O  O13  1  0.178325  0.002542  0.906976  1
  O  O14  1  0.175402  0.484725  0.590431  1
  O  O15  1  0.175350  0.500330  0.908697  1
  O  O16  1  0.333867  0.239606  0.087937  1
  O  O17  1  0.332699  0.258958  0.411560  1
  O  O18  1  0.321944  0.763055  0.086131  1
  O  O19  1  0.318852  0.733909  0.413528  1
  O  O20  1  0.682764  0.265590  0.588019  1
  O  O21  1  0.678017  0.236877  0.913905  1
  O  O22  1  0.664419  0.740696  0.587263  1
  O  O23  1  0.666083  0.760378  0.911995  1
  O  O24  1  0.828748  0.013577  0.410067  1
  O  O25  1  0.824878  0.490344  0.408779  1
  O  O26  1  0.821691  0.996727  0.092982  1
  O  O27  1  0.824767  0.500388  0.091207  1
