# generated using pymatgen
data_Mo3WSe8
_symmetry_space_group_name_H-M   'P 1'
_cell_length_a   3.32372080
_cell_length_b   3.32361788
_cell_length_c   37.82491404
_cell_angle_alpha   90.00061196
_cell_angle_beta   90.00000000
_cell_angle_gamma   120.00102441
_symmetry_Int_Tables_number   1
_chemical_formula_structural   Mo3WSe8
_chemical_formula_sum   'Mo3 W1 Se8'
_cell_volume   361.85928376
_cell_formula_units_Z   1
loop_
 _symmetry_equiv_pos_site_id
 _symmetry_equiv_pos_as_xyz
  1  'x, y, z'
loop_
 _atom_site_type_symbol
 _atom_site_label
 _atom_site_symmetry_multiplicity
 _atom_site_fract_x
 _atom_site_fract_y
 _atom_site_fract_z
 _atom_site_occupancy
  Mo  Mo0  1  0.333307  0.666614  0.093920  1
  Mo  Mo1  1  0.333310  0.666620  0.469658  1
  Mo  Mo2  1  0.666691  0.333381  0.281800  1
  W  W3  1  0.666691  0.333381  0.657538  1
  Se  Se4  1  0.333367  0.666736  0.326115  1
  Se  Se5  1  0.333354  0.666710  0.702067  1
  Se  Se6  1  0.666647  0.333293  0.049627  1
  Se  Se7  1  0.666648  0.333295  0.425359  1
  Se  Se8  1  0.666633  0.333266  0.138228  1
  Se  Se9  1  0.666648  0.333295  0.513945  1
  Se  Se10  1  0.333351  0.666702  0.237486  1
  Se  Se11  1  0.333353  0.666707  0.613005  1
