# generated using pymatgen
data_TcW2C
_symmetry_space_group_name_H-M   'P 1'
_cell_length_a   2.98821732
_cell_length_b   2.98821754
_cell_length_c   13.85004308
_cell_angle_alpha   90.00144828
_cell_angle_beta   90.00144827
_cell_angle_gamma   59.99833233
_symmetry_Int_Tables_number   1
_chemical_formula_structural   TcW2C
_chemical_formula_sum   'Tc2 W4 C2'
_cell_volume   107.10231229
_cell_formula_units_Z   2
loop_
 _symmetry_equiv_pos_site_id
 _symmetry_equiv_pos_as_xyz
  1  'x, y, z'
loop_
 _atom_site_type_symbol
 _atom_site_label
 _atom_site_symmetry_multiplicity
 _atom_site_fract_x
 _atom_site_fract_y
 _atom_site_fract_z
 _atom_site_occupancy
  Tc  Tc0  1  0.333322  0.333322  0.588450  1
  Tc  Tc1  1  0.333333  0.333333  0.908170  1
  W  W2  1  0.666659  0.666659  0.083011  1
  W  W3  1  0.666659  0.666659  0.429031  1
  W  W4  1  0.666695  0.666695  0.741406  1
  W  W5  1  0.333336  0.333336  0.251143  1
  C  C6  1  0.999999  0.999999  0.992434  1
  C  C7  1  0.999997  0.999997  0.339688  1
