# generated using pymatgen
data_PmMg2Sc
_symmetry_space_group_name_H-M   'P 1'
_cell_length_a   5.29031950
_cell_length_b   5.29061499
_cell_length_c   5.29068978
_cell_angle_alpha   59.99609567
_cell_angle_beta   59.99988684
_cell_angle_gamma   60.01209688
_symmetry_Int_Tables_number   1
_chemical_formula_structural   PmMg2Sc
_chemical_formula_sum   'Pm1 Mg2 Sc1'
_cell_volume   104.71571374
_cell_formula_units_Z   1
loop_
 _symmetry_equiv_pos_site_id
 _symmetry_equiv_pos_as_xyz
  1  'x, y, z'
loop_
 _atom_site_type_symbol
 _atom_site_label
 _atom_site_symmetry_multiplicity
 _atom_site_fract_x
 _atom_site_fract_y
 _atom_site_fract_z
 _atom_site_occupancy
  Pm  Pm0  1  0.249984  0.249997  0.250010  1
  Mg  Mg1  1  0.499983  0.499991  0.500015  1
  Mg  Mg2  1  0.999983  0.999991  0.000016  1
  Sc  Sc3  1  0.750050  0.750021  0.749959  1
