# generated using pymatgen
data_Zn3(GaS3)2
_symmetry_space_group_name_H-M   'P 1'
_cell_length_a   3.77974431
_cell_length_b   3.78061842
_cell_length_c   18.35039929
_cell_angle_alpha   89.99999999
_cell_angle_beta   90.00779665
_cell_angle_gamma   120.00764419
_symmetry_Int_Tables_number   1
_chemical_formula_structural   Zn3(GaS3)2
_chemical_formula_sum   'Zn3 Ga2 S6'
_cell_volume   227.07428460
_cell_formula_units_Z   1
loop_
 _symmetry_equiv_pos_site_id
 _symmetry_equiv_pos_as_xyz
  1  'x, y, z'
loop_
 _atom_site_type_symbol
 _atom_site_label
 _atom_site_symmetry_multiplicity
 _atom_site_fract_x
 _atom_site_fract_y
 _atom_site_fract_z
 _atom_site_occupancy
  Zn  Zn0  1  0.999940  0.999970  0.775792  1
  Zn  Zn1  1  0.666693  0.333346  0.377492  1
  Zn  Zn2  1  0.999751  0.999875  0.203089  1
  Ga  Ga3  1  0.666582  0.333291  0.951570  1
  Ga  Ga4  1  0.333388  0.666694  0.578931  1
  S  S5  1  0.000090  0.000045  0.997999  1
  S  S6  1  0.666654  0.333327  0.824713  1
  S  S7  1  0.000032  0.000016  0.652778  1
  S  S8  1  0.666614  0.333307  0.513265  1
  S  S9  1  0.999942  0.999971  0.338331  1
  S  S10  1  0.666715  0.333357  0.161643  1
