# generated using pymatgen
data_TeMo2Se3
_symmetry_space_group_name_H-M   'P 1'
_cell_length_a   3.38260283
_cell_length_b   3.38254627
_cell_length_c   38.40151359
_cell_angle_alpha   90.00017330
_cell_angle_beta   90.00000000
_cell_angle_gamma   120.00055322
_symmetry_Int_Tables_number   1
_chemical_formula_structural   TeMo2Se3
_chemical_formula_sum   'Te2 Mo4 Se6'
_cell_volume   380.51458436
_cell_formula_units_Z   2
loop_
 _symmetry_equiv_pos_site_id
 _symmetry_equiv_pos_as_xyz
  1  'x, y, z'
loop_
 _atom_site_type_symbol
 _atom_site_label
 _atom_site_symmetry_multiplicity
 _atom_site_fract_x
 _atom_site_fract_y
 _atom_site_fract_z
 _atom_site_occupancy
  Te  Te0  1  0.333361  0.666722  0.706427  1
  Te  Te1  1  0.333351  0.666702  0.608647  1
  Mo  Mo2  1  0.333308  0.666617  0.093911  1
  Mo  Mo3  1  0.333311  0.666622  0.469665  1
  Mo  Mo4  1  0.666688  0.333375  0.281797  1
  Mo  Mo5  1  0.666693  0.333385  0.657554  1
  Se  Se6  1  0.333352  0.666704  0.324865  1
  Se  Se7  1  0.666645  0.333289  0.050860  1
  Se  Se8  1  0.666648  0.333294  0.426597  1
  Se  Se9  1  0.666647  0.333294  0.136986  1
  Se  Se10  1  0.666649  0.333296  0.512718  1
  Se  Se11  1  0.333349  0.666699  0.238721  1
