# generated using pymatgen
data_Ta3Mn8Si
_symmetry_space_group_name_H-M   'P 1'
_cell_length_a   4.75431212
_cell_length_b   4.75431212
_cell_length_c   7.81025136
_cell_angle_alpha   90.00416719
_cell_angle_beta   89.99583281
_cell_angle_gamma   120.00805508
_symmetry_Int_Tables_number   1
_chemical_formula_structural   Ta3Mn8Si
_chemical_formula_sum   'Ta3 Mn8 Si1'
_cell_volume   152.87475149
_cell_formula_units_Z   1
loop_
 _symmetry_equiv_pos_site_id
 _symmetry_equiv_pos_as_xyz
  1  'x, y, z'
loop_
 _atom_site_type_symbol
 _atom_site_label
 _atom_site_symmetry_multiplicity
 _atom_site_fract_x
 _atom_site_fract_y
 _atom_site_fract_z
 _atom_site_occupancy
  Ta  Ta0  1  0.333349  0.666651  0.441849  1
  Ta  Ta1  1  0.333309  0.666691  0.065592  1
  Ta  Ta2  1  0.666662  0.333338  0.920484  1
  Mn  Mn3  1  0.000017  0.999983  0.503468  1
  Mn  Mn4  1  0.999945  0.000055  0.008233  1
  Mn  Mn5  1  0.171632  0.343171  0.747174  1
  Mn  Mn6  1  0.171577  0.828423  0.747294  1
  Mn  Mn7  1  0.656829  0.828368  0.747174  1
  Mn  Mn8  1  0.826130  0.652257  0.252043  1
  Mn  Mn9  1  0.826168  0.173831  0.251990  1
  Mn  Mn10  1  0.347743  0.173870  0.252043  1
  Si  Si11  1  0.666640  0.333360  0.562657  1
