# generated using pymatgen
data_TeWS
_symmetry_space_group_name_H-M   'P 1'
_cell_length_a   3.36070145
_cell_length_b   3.36069222
_cell_length_c   38.39031729
_cell_angle_alpha   89.99997291
_cell_angle_beta   90.00000000
_cell_angle_gamma   120.00009095
_symmetry_Int_Tables_number   1
_chemical_formula_structural   TeWS
_chemical_formula_sum   'Te4 W4 S4'
_cell_volume   375.50057746
_cell_formula_units_Z   4
loop_
 _symmetry_equiv_pos_site_id
 _symmetry_equiv_pos_as_xyz
  1  'x, y, z'
loop_
 _atom_site_type_symbol
 _atom_site_label
 _atom_site_symmetry_multiplicity
 _atom_site_fract_x
 _atom_site_fract_y
 _atom_site_fract_z
 _atom_site_occupancy
  Te  Te0  1  0.333352  0.666705  0.331329  1
  Te  Te1  1  0.333356  0.666713  0.707064  1
  Te  Te2  1  0.333351  0.666702  0.232250  1
  Te  Te3  1  0.333351  0.666704  0.608014  1
  W  W4  1  0.333313  0.666626  0.093910  1
  W  W5  1  0.333298  0.666596  0.469672  1
  W  W6  1  0.666687  0.333375  0.281805  1
  W  W7  1  0.666688  0.333377  0.657557  1
  S  S8  1  0.666648  0.333294  0.054371  1
  S  S9  1  0.666654  0.333306  0.430131  1
  S  S10  1  0.666648  0.333295  0.133456  1
  S  S11  1  0.666654  0.333307  0.509189  1
