# generated using pymatgen
data_Te8Mo3W
_symmetry_space_group_name_H-M   'P 1'
_cell_length_a   3.55761413
_cell_length_b   3.55738030
_cell_length_c   40.07722546
_cell_angle_alpha   90.00047223
_cell_angle_beta   90.00000000
_cell_angle_gamma   120.00217429
_symmetry_Int_Tables_number   1
_chemical_formula_structural   Te8Mo3W
_chemical_formula_sum   'Te8 Mo3 W1'
_cell_volume   439.24608660
_cell_formula_units_Z   1
loop_
 _symmetry_equiv_pos_site_id
 _symmetry_equiv_pos_as_xyz
  1  'x, y, z'
loop_
 _atom_site_type_symbol
 _atom_site_label
 _atom_site_symmetry_multiplicity
 _atom_site_fract_x
 _atom_site_fract_y
 _atom_site_fract_z
 _atom_site_occupancy
  Te  Te0  1  0.333352  0.666706  0.326997  1
  Te  Te1  1  0.333349  0.666698  0.702827  1
  Te  Te2  1  0.666650  0.333298  0.048746  1
  Te  Te3  1  0.666652  0.333302  0.424466  1
  Te  Te4  1  0.666651  0.333302  0.139126  1
  Te  Te5  1  0.666652  0.333303  0.514843  1
  Te  Te6  1  0.333347  0.666695  0.236600  1
  Te  Te7  1  0.333349  0.666699  0.612206  1
  Mo  Mo8  1  0.333297  0.666594  0.093916  1
  Mo  Mo9  1  0.333299  0.666599  0.469669  1
  Mo  Mo10  1  0.666703  0.333405  0.281804  1
  W  W11  1  0.666699  0.333398  0.657548  1
