# generated using pymatgen
data_LaEuHg2
_symmetry_space_group_name_H-M   'P 1'
_cell_length_a   5.50966448
_cell_length_b   5.51021674
_cell_length_c   5.50942575
_cell_angle_alpha   59.95495730
_cell_angle_beta   59.95302232
_cell_angle_gamma   59.95651302
_symmetry_Int_Tables_number   1
_chemical_formula_structural   LaEuHg2
_chemical_formula_sum   'La1 Eu1 Hg2'
_cell_volume   118.15172220
_cell_formula_units_Z   1
loop_
 _symmetry_equiv_pos_site_id
 _symmetry_equiv_pos_as_xyz
  1  'x, y, z'
loop_
 _atom_site_type_symbol
 _atom_site_label
 _atom_site_symmetry_multiplicity
 _atom_site_fract_x
 _atom_site_fract_y
 _atom_site_fract_z
 _atom_site_occupancy
  La  La0  1  0.750001  0.750001  0.750001  1
  Eu  Eu1  1  0.250001  0.250001  0.250001  1
  Hg  Hg2  1  0.000008  0.999998  0.000005  1
  Hg  Hg3  1  0.499992  0.500001  0.499994  1
