# generated using pymatgen
data_K2SnN6
_symmetry_space_group_name_H-M   'P 1'
_cell_length_a   6.40996610
_cell_length_b   6.40996610
_cell_length_c   6.40996636
_cell_angle_alpha   59.17254916
_cell_angle_beta   59.17254916
_cell_angle_gamma   59.17254251
_symmetry_Int_Tables_number   1
_chemical_formula_structural   K2SnN6
_chemical_formula_sum   'K2 Sn1 N6'
_cell_volume   182.71963077
_cell_formula_units_Z   1
loop_
 _symmetry_equiv_pos_site_id
 _symmetry_equiv_pos_as_xyz
  1  'x, y, z'
loop_
 _atom_site_type_symbol
 _atom_site_label
 _atom_site_symmetry_multiplicity
 _atom_site_fract_x
 _atom_site_fract_y
 _atom_site_fract_z
 _atom_site_occupancy
  K  K0  1  0.751897  0.751897  0.751897  1
  K  K1  1  0.248103  0.248103  0.248103  1
  Sn  Sn2  1  0.000000  0.000000  -0.000000  1
  N  N3  1  0.242691  0.758910  0.758910  1
  N  N4  1  0.758910  0.758910  0.242691  1
  N  N5  1  0.758910  0.242691  0.758910  1
  N  N6  1  0.757309  0.241090  0.241090  1
  N  N7  1  0.241090  0.241090  0.757309  1
  N  N8  1  0.241090  0.757309  0.241090  1
