# generated using pymatgen
data_Te2Mo3Se4
_symmetry_space_group_name_H-M   'P 1'
_cell_length_a   3.40127988
_cell_length_b   3.40120161
_cell_length_c   31.41433534
_cell_angle_alpha   89.99971542
_cell_angle_beta   90.00000000
_cell_angle_gamma   120.00076127
_symmetry_Int_Tables_number   1
_chemical_formula_structural   Te2Mo3Se4
_chemical_formula_sum   'Te2 Mo3 Se4'
_cell_volume   314.72404274
_cell_formula_units_Z   1
loop_
 _symmetry_equiv_pos_site_id
 _symmetry_equiv_pos_as_xyz
  1  'x, y, z'
loop_
 _atom_site_type_symbol
 _atom_site_label
 _atom_site_symmetry_multiplicity
 _atom_site_fract_x
 _atom_site_fract_y
 _atom_site_fract_z
 _atom_site_occupancy
  Te  Te0  1  0.666646  0.333290  0.518639  1
  Te  Te1  1  0.666644  0.333287  0.637980  1
  Mo  Mo2  1  0.333312  0.666624  0.115649  1
  Mo  Mo3  1  0.333308  0.666616  0.578328  1
  Mo  Mo4  1  0.666688  0.333375  0.346970  1
  Se  Se5  1  0.333351  0.666702  0.399489  1
  Se  Se6  1  0.666647  0.333292  0.063148  1
  Se  Se7  1  0.666655  0.333308  0.168163  1
  Se  Se8  1  0.333352  0.666704  0.294474  1
