# generated using pymatgen
data_Nb4GeS8
_symmetry_space_group_name_H-M   'P 1'
_cell_length_a   3.37009278
_cell_length_b   3.37009278
_cell_length_c   28.67182462
_cell_angle_alpha   89.98911158
_cell_angle_beta   90.01088842
_cell_angle_gamma   120.00111784
_symmetry_Int_Tables_number   1
_chemical_formula_structural   Nb4GeS8
_chemical_formula_sum   'Nb4 Ge1 S8'
_cell_volume   282.01017358
_cell_formula_units_Z   1
loop_
 _symmetry_equiv_pos_site_id
 _symmetry_equiv_pos_as_xyz
  1  'x, y, z'
loop_
 _atom_site_type_symbol
 _atom_site_label
 _atom_site_symmetry_multiplicity
 _atom_site_fract_x
 _atom_site_fract_y
 _atom_site_fract_z
 _atom_site_occupancy
  Nb  Nb0  1  0.333388  0.666612  0.493487  1
  Nb  Nb1  1  0.666638  0.333362  0.998779  1
  Nb  Nb2  1  0.333323  0.666677  0.234751  1
  Nb  Nb3  1  0.666635  0.333365  0.744670  1
  Ge  Ge4  1  0.333323  0.666677  0.616515  1
  S  S5  1  0.666740  0.333260  0.548949  1
  S  S6  1  0.333352  0.666648  0.053522  1
  S  S7  1  0.999975  0.000025  0.179944  1
  S  S8  1  0.999954  0.000046  0.687942  1
  S  S9  1  0.000018  0.999982  0.289656  1
  S  S10  1  0.999992  0.000008  0.798324  1
  S  S11  1  0.333306  0.666694  0.943918  1
  S  S12  1  0.666655  0.333345  0.438543  1
