# generated using pymatgen
data_La2I6O19
_symmetry_space_group_name_H-M   'P 1'
_cell_length_a   7.44448581
_cell_length_b   10.93304377
_cell_length_c   11.25766971
_cell_angle_alpha   90.00000000
_cell_angle_beta   90.00000000
_cell_angle_gamma   92.33546716
_symmetry_Int_Tables_number   1
_chemical_formula_structural   La2I6O19
_chemical_formula_sum   'La4 I12 O38'
_cell_volume   915.51065712
_cell_formula_units_Z   2
loop_
 _symmetry_equiv_pos_site_id
 _symmetry_equiv_pos_as_xyz
  1  'x, y, z'
loop_
 _atom_site_type_symbol
 _atom_site_label
 _atom_site_symmetry_multiplicity
 _atom_site_fract_x
 _atom_site_fract_y
 _atom_site_fract_z
 _atom_site_occupancy
  La  La0  1  0.821954  0.922062  0.498516  1
  La  La1  1  0.321954  0.422062  0.501484  1
  La  La2  1  0.828397  0.323334  0.979321  1
  La  La3  1  0.328397  0.823334  0.020679  1
  I  I4  1  0.822010  0.922146  0.149450  1
  I  I5  1  0.322010  0.422146  0.850550  1
  I  I6  1  0.908580  0.240807  0.333081  1
  I  I7  1  0.408580  0.740807  0.666919  1
  I  I8  1  0.659510  0.213164  0.670107  1
  I  I9  1  0.159510  0.713164  0.329893  1
  I  I10  1  0.804308  0.554272  0.532927  1
  I  I11  1  0.304308  0.054272  0.467073  1
  I  I12  1  0.913630  0.679977  0.851152  1
  I  I13  1  0.413630  0.179977  0.148848  1
  I  I14  1  0.522099  0.550552  0.189226  1
  I  I15  1  0.022099  0.050552  0.810774  1
  O  O16  1  0.740261  0.856062  0.289169  1
  O  O17  1  0.240261  0.356062  0.710831  1
  O  O18  1  0.018465  0.827947  0.128438  1
  O  O19  1  0.518465  0.327947  0.871562  1
  O  O20  1  0.664938  0.837325  0.050221  1
  O  O21  1  0.164938  0.337325  0.949779  1
  O  O22  1  0.910105  0.073406  0.335187  1
  O  O23  1  0.410105  0.573406  0.664813  1
  O  O24  1  0.952638  0.258873  0.174201  1
  O  O25  1  0.452638  0.758873  0.825799  1
  O  O26  1  0.143633  0.261616  0.381274  1
  O  O27  1  0.643633  0.761616  0.618726  1
  O  O28  1  0.785839  0.153690  0.543744  1
  O  O29  1  0.285839  0.653690  0.456256  1
  O  O30  1  0.856370  0.251595  0.766792  1
  O  O31  1  0.356370  0.751595  0.233208  1
  O  O32  1  0.626304  0.366965  0.612267  1
  O  O33  1  0.126304  0.866965  0.387733  1
  O  O34  1  0.886418  0.695538  0.456609  1
  O  O35  1  0.386418  0.195538  0.543391  1
  O  O36  1  0.985149  0.458396  0.480025  1
  O  O37  1  0.485149  0.958396  0.519975  1
  O  O38  1  0.628345  0.510199  0.423473  1
  O  O39  1  0.128345  0.010199  0.576527  1
  O  O40  1  0.111174  0.654180  0.944806  1
  O  O41  1  0.611174  0.154180  0.055194  1
  O  O42  1  0.020088  0.667556  0.705866  1
  O  O43  1  0.520088  0.167556  0.294134  1
  O  O44  1  0.808361  0.526951  0.866834  1
  O  O45  1  0.308361  0.026951  0.133166  1
  O  O46  1  0.426821  0.593064  0.045847  1
  O  O47  1  0.926821  0.093064  0.954153  1
  O  O48  1  0.328421  0.479502  0.267103  1
  O  O49  1  0.828421  0.979502  0.732897  1
  O  O50  1  0.618837  0.405492  0.138389  1
  O  O51  1  0.118837  0.905492  0.861611  1
  O  O52  1  0.973744  0.506030  0.104651  1
  O  O53  1  0.473744  0.006030  0.895349  1
