# generated using pymatgen
data_Sc2(Co7B2)3
_symmetry_space_group_name_H-M   'P 1'
_cell_length_a   7.46531439
_cell_length_b   7.46531439
_cell_length_c   7.46531439
_cell_angle_alpha   60.00000000
_cell_angle_beta   60.00000000
_cell_angle_gamma   60.00000000
_symmetry_Int_Tables_number   1
_chemical_formula_structural   Sc2(Co7B2)3
_chemical_formula_sum   'Sc2 Co21 B6'
_cell_volume   294.19095000
_cell_formula_units_Z   1
loop_
 _symmetry_equiv_pos_site_id
 _symmetry_equiv_pos_as_xyz
  1  'x, y, z'
loop_
 _atom_site_type_symbol
 _atom_site_label
 _atom_site_symmetry_multiplicity
 _atom_site_fract_x
 _atom_site_fract_y
 _atom_site_fract_z
 _atom_site_occupancy
  Sc  Sc0  1  0.250000  0.250000  0.250000  1
  Sc  Sc1  1  0.750000  0.750000  0.750000  1
  Co  Co2  1  0.000000  0.000000  -0.000000  1
  Co  Co3  1  0.844126  0.385291  0.385291  1
  Co  Co4  1  0.385291  0.844126  0.385291  1
  Co  Co5  1  0.385291  0.385291  0.844126  1
  Co  Co6  1  0.385291  0.385291  0.385291  1
  Co  Co7  1  0.155874  0.614709  0.614709  1
  Co  Co8  1  0.614709  0.155874  0.614709  1
  Co  Co9  1  0.614709  0.614709  0.155874  1
  Co  Co10  1  0.614709  0.614709  0.614709  1
  Co  Co11  1  0.663091  0.000000  -0.000000  1
  Co  Co12  1  0.663091  0.000000  0.336909  1
  Co  Co13  1  0.663091  0.336909  -0.000000  1
  Co  Co14  1  0.000000  0.663091  0.336909  1
  Co  Co15  1  0.000000  0.663091  -0.000000  1
  Co  Co16  1  0.336909  0.663091  -0.000000  1
  Co  Co17  1  0.000000  0.336909  0.663091  1
  Co  Co18  1  0.336909  0.000000  0.663091  1
  Co  Co19  1  0.000000  0.000000  0.663091  1
  Co  Co20  1  0.336909  0.000000  -0.000000  1
  Co  Co21  1  0.000000  0.336909  -0.000000  1
  Co  Co22  1  0.000000  0.000000  0.336909  1
  B  B23  1  0.725050  0.274950  0.274950  1
  B  B24  1  0.725050  0.274950  0.725050  1
  B  B25  1  0.725050  0.725050  0.274950  1
  B  B26  1  0.274950  0.725050  0.725050  1
  B  B27  1  0.274950  0.725050  0.274950  1
  B  B28  1  0.274950  0.274950  0.725050  1
