# generated using pymatgen
data_K3TaBr6
_symmetry_space_group_name_H-M   'P 1'
_cell_length_a   8.11001647
_cell_length_b   8.10649554
_cell_length_c   8.10671032
_cell_angle_alpha   59.99953459
_cell_angle_beta   59.99136829
_cell_angle_gamma   59.99738585
_symmetry_Int_Tables_number   1
_chemical_formula_structural   K3TaBr6
_chemical_formula_sum   'K3 Ta1 Br6'
_cell_volume   376.83054247
_cell_formula_units_Z   1
loop_
 _symmetry_equiv_pos_site_id
 _symmetry_equiv_pos_as_xyz
  1  'x, y, z'
loop_
 _atom_site_type_symbol
 _atom_site_label
 _atom_site_symmetry_multiplicity
 _atom_site_fract_x
 _atom_site_fract_y
 _atom_site_fract_z
 _atom_site_occupancy
  K  K0  1  0.249971  0.250020  0.250018  1
  K  K1  1  0.750028  0.749979  0.749983  1
  K  K2  1  0.500002  0.500001  0.499998  1
  Ta  Ta3  1  -0.000000  0.000000  0.000000  1
  Br  Br4  1  0.228919  0.771088  0.228940  1
  Br  Br5  1  0.771023  0.770974  0.229018  1
  Br  Br6  1  0.771080  0.228912  0.771061  1
  Br  Br7  1  0.771084  0.228920  0.228926  1
  Br  Br8  1  0.228915  0.771079  0.771075  1
  Br  Br9  1  0.228976  0.229026  0.770982  1
