# generated using pymatgen
data_Zr6Ga16Pd7
_symmetry_space_group_name_H-M   'P 1'
_cell_length_a   8.86462405
_cell_length_b   8.86462405
_cell_length_c   8.86462405
_cell_angle_alpha   60.00000000
_cell_angle_beta   60.00000000
_cell_angle_gamma   60.00000000
_symmetry_Int_Tables_number   1
_chemical_formula_structural   Zr6Ga16Pd7
_chemical_formula_sum   'Zr6 Ga16 Pd7'
_cell_volume   492.56774345
_cell_formula_units_Z   1
loop_
 _symmetry_equiv_pos_site_id
 _symmetry_equiv_pos_as_xyz
  1  'x, y, z'
loop_
 _atom_site_type_symbol
 _atom_site_label
 _atom_site_symmetry_multiplicity
 _atom_site_fract_x
 _atom_site_fract_y
 _atom_site_fract_z
 _atom_site_occupancy
  Zr  Zr0  1  0.691710  0.308290  0.308290  1
  Zr  Zr1  1  0.691710  0.308290  0.691710  1
  Zr  Zr2  1  0.691710  0.691710  0.308290  1
  Zr  Zr3  1  0.308290  0.691710  0.691710  1
  Zr  Zr4  1  0.308290  0.691710  0.308290  1
  Zr  Zr5  1  0.308290  0.308290  0.691710  1
  Ga  Ga6  1  0.635631  0.121456  0.121456  1
  Ga  Ga7  1  0.121456  0.635631  0.121456  1
  Ga  Ga8  1  0.121456  0.121456  0.635631  1
  Ga  Ga9  1  0.121456  0.121456  0.121456  1
  Ga  Ga10  1  0.364369  0.878544  0.878544  1
  Ga  Ga11  1  0.878544  0.364369  0.878544  1
  Ga  Ga12  1  0.878544  0.878544  0.364369  1
  Ga  Ga13  1  0.878544  0.878544  0.878544  1
  Ga  Ga14  1  0.980609  0.339797  0.339797  1
  Ga  Ga15  1  0.339797  0.980609  0.339797  1
  Ga  Ga16  1  0.339797  0.339797  0.980609  1
  Ga  Ga17  1  0.339797  0.339797  0.339797  1
  Ga  Ga18  1  0.019391  0.660203  0.660203  1
  Ga  Ga19  1  0.660203  0.019391  0.660203  1
  Ga  Ga20  1  0.660203  0.660203  0.019391  1
  Ga  Ga21  1  0.660203  0.660203  0.660203  1
  Pd  Pd22  1  0.000000  0.000000  -0.000000  1
  Pd  Pd23  1  0.500000  0.000000  -0.000000  1
  Pd  Pd24  1  0.500000  0.000000  0.500000  1
  Pd  Pd25  1  0.500000  0.500000  -0.000000  1
  Pd  Pd26  1  0.000000  0.500000  0.500000  1
  Pd  Pd27  1  0.000000  0.500000  -0.000000  1
  Pd  Pd28  1  0.000000  0.000000  0.500000  1
