# generated using pymatgen
data_Ta3Mn8Al
_symmetry_space_group_name_H-M   'P 1'
_cell_length_a   4.77165714
_cell_length_b   4.77148130
_cell_length_c   7.87483931
_cell_angle_alpha   90.01089196
_cell_angle_beta   89.99568281
_cell_angle_gamma   60.00138616
_symmetry_Int_Tables_number   1
_chemical_formula_structural   Ta3Mn8Al
_chemical_formula_sum   'Ta3 Mn8 Al1'
_cell_volume   155.27475010
_cell_formula_units_Z   1
loop_
 _symmetry_equiv_pos_site_id
 _symmetry_equiv_pos_as_xyz
  1  'x, y, z'
loop_
 _atom_site_type_symbol
 _atom_site_label
 _atom_site_symmetry_multiplicity
 _atom_site_fract_x
 _atom_site_fract_y
 _atom_site_fract_z
 _atom_site_occupancy
  Ta  Ta0  1  0.666729  0.666631  0.441566  1
  Ta  Ta1  1  0.666679  0.666700  0.064905  1
  Ta  Ta2  1  0.333363  0.333340  0.924841  1
  Mn  Mn3  1  -0.000060  0.000063  0.501730  1
  Mn  Mn4  1  0.999930  0.000041  0.006020  1
  Mn  Mn5  1  0.828372  0.343219  0.748400  1
  Mn  Mn6  1  0.343198  0.828371  0.748445  1
  Mn  Mn7  1  0.828393  0.828346  0.748367  1
  Mn  Mn8  1  0.173481  0.653024  0.250938  1
  Mn  Mn9  1  0.652975  0.173473  0.250908  1
  Mn  Mn10  1  0.173554  0.173485  0.250951  1
  Al  Al11  1  0.333386  0.333308  0.562929  1
