# generated using pymatgen
data_ZnCr2O4
_symmetry_space_group_name_H-M   'P 1'
_cell_length_a   6.00505239
_cell_length_b   6.00506066
_cell_length_c   18.10819191
_cell_angle_alpha   60.17098896
_cell_angle_beta   60.17082621
_cell_angle_gamma   60.00032189
_symmetry_Int_Tables_number   1
_chemical_formula_structural   ZnCr2O4
_chemical_formula_sum   'Zn6 Cr12 O24'
_cell_volume   462.92691697
_cell_formula_units_Z   6
loop_
 _symmetry_equiv_pos_site_id
 _symmetry_equiv_pos_as_xyz
  1  'x, y, z'
loop_
 _atom_site_type_symbol
 _atom_site_label
 _atom_site_symmetry_multiplicity
 _atom_site_fract_x
 _atom_site_fract_y
 _atom_site_fract_z
 _atom_site_occupancy
  Zn  Zn0  1  0.121227  0.121227  0.045437  1
  Zn  Zn1  1  0.120082  0.120079  0.379912  1
  Zn  Zn2  1  0.497056  0.497052  0.336278  1
  Zn  Zn3  1  0.126087  0.126087  0.707239  1
  Zn  Zn4  1  0.498154  0.498153  0.001842  1
  Zn  Zn5  1  0.877219  0.877220  0.622795  1
  Cr  Cr6  1  0.498686  0.498689  0.166439  1
  Cr  Cr7  1  0.498693  0.003324  0.166442  1
  Cr  Cr8  1  0.498859  0.498827  0.500432  1
  Cr  Cr9  1  0.003315  0.498694  0.166444  1
  Cr  Cr10  1  0.498842  0.001015  0.500436  1
  Cr  Cr11  1  0.500993  0.501001  0.665671  1
  Cr  Cr12  1  0.878465  0.878486  0.288222  1
  Cr  Cr13  1  0.500641  0.500629  0.831831  1
  Cr  Cr14  1  0.001030  0.498842  0.500428  1
  Cr  Cr15  1  0.500621  0.003222  0.831828  1
  Cr  Cr16  1  0.003213  0.500652  0.831825  1
  Cr  Cr17  1  0.877932  0.877940  0.955388  1
  O  O18  1  0.254641  0.254628  0.090775  1
  O  O19  1  0.260614  0.260603  0.239394  1
  O  O20  1  0.254644  0.718405  0.090775  1
  O  O21  1  0.718403  0.254641  0.090775  1
  O  O22  1  0.253171  0.253163  0.425191  1
  O  O23  1  0.272583  0.750101  0.242414  1
  O  O24  1  0.260636  0.260639  0.572696  1
  O  O25  1  0.750101  0.272594  0.242409  1
  O  O26  1  0.739721  0.739713  0.093612  1
  O  O27  1  0.253183  0.718079  0.425189  1
  O  O28  1  0.718080  0.253180  0.425188  1
  O  O29  1  0.750098  0.750089  0.242430  1
  O  O30  1  0.261859  0.261867  0.753702  1
  O  O31  1  0.284876  0.736984  0.580394  1
  O  O32  1  0.736989  0.284876  0.580392  1
  O  O33  1  0.261528  0.261535  0.905121  1
  O  O34  1  0.739943  0.739942  0.426711  1
  O  O35  1  0.261857  0.715141  0.753710  1
  O  O36  1  0.715135  0.261858  0.753709  1
  O  O37  1  0.736989  0.736975  0.580394  1
  O  O38  1  0.271827  0.751891  0.908128  1
  O  O39  1  0.751887  0.271826  0.908128  1
  O  O40  1  0.738247  0.738253  0.761739  1
  O  O41  1  0.751871  0.751877  0.908135  1
