# generated using pymatgen
data_Mo(WS3)2
_symmetry_space_group_name_H-M   'P 1'
_cell_length_a   3.19000111
_cell_length_b   3.19001225
_cell_length_c   29.09869702
_cell_angle_alpha   90.00009007
_cell_angle_beta   90.00000000
_cell_angle_gamma   119.99988443
_symmetry_Int_Tables_number   1
_chemical_formula_structural   Mo(WS3)2
_chemical_formula_sum   'Mo1 W2 S6'
_cell_volume   256.44123774
_cell_formula_units_Z   1
loop_
 _symmetry_equiv_pos_site_id
 _symmetry_equiv_pos_as_xyz
  1  'x, y, z'
loop_
 _atom_site_type_symbol
 _atom_site_label
 _atom_site_symmetry_multiplicity
 _atom_site_fract_x
 _atom_site_fract_y
 _atom_site_fract_z
 _atom_site_occupancy
  Mo  Mo0  1  0.333305  0.666610  0.115629  1
  W  W1  1  0.333305  0.666610  0.578334  1
  W  W2  1  0.666695  0.333390  0.346989  1
  S  S3  1  0.333352  0.666706  0.400969  1
  S  S4  1  0.666645  0.333288  0.061862  1
  S  S5  1  0.666644  0.333287  0.524317  1
  S  S6  1  0.666645  0.333290  0.169409  1
  S  S7  1  0.666646  0.333291  0.632325  1
  S  S8  1  0.333364  0.666729  0.293005  1
