# generated using pymatgen
data_Cu2GeI6
_symmetry_space_group_name_H-M   'P 1'
_cell_length_a   7.73304932
_cell_length_b   7.73304950
_cell_length_c   7.73304979
_cell_angle_alpha   60.00000210
_cell_angle_beta   60.00000133
_cell_angle_gamma   60.00000158
_symmetry_Int_Tables_number   1
_chemical_formula_structural   Cu2GeI6
_chemical_formula_sum   'Cu2 Ge1 I6'
_cell_volume   326.99220164
_cell_formula_units_Z   1
loop_
 _symmetry_equiv_pos_site_id
 _symmetry_equiv_pos_as_xyz
  1  'x, y, z'
loop_
 _atom_site_type_symbol
 _atom_site_label
 _atom_site_symmetry_multiplicity
 _atom_site_fract_x
 _atom_site_fract_y
 _atom_site_fract_z
 _atom_site_occupancy
  Cu  Cu0  1  0.750000  0.750000  0.750000  1
  Cu  Cu1  1  0.250000  0.250000  0.250000  1
  Ge  Ge2  1  -0.000000  -0.000000  0.000000  1
  I  I3  1  0.249381  0.750619  0.750619  1
  I  I4  1  0.249381  0.750619  0.249381  1
  I  I5  1  0.750619  0.249381  0.750619  1
  I  I6  1  0.750619  0.249381  0.249381  1
  I  I7  1  0.750619  0.750619  0.249381  1
  I  I8  1  0.249381  0.249381  0.750619  1
