# generated using pymatgen
data_Te8MoW3
_symmetry_space_group_name_H-M   'P 1'
_cell_length_a   3.55905764
_cell_length_b   3.55891131
_cell_length_c   40.14818746
_cell_angle_alpha   90.00030914
_cell_angle_beta   90.00000000
_cell_angle_gamma   120.00136014
_symmetry_Int_Tables_number   1
_chemical_formula_structural   Te8MoW3
_chemical_formula_sum   'Te8 Mo1 W3'
_cell_volume   440.39543569
_cell_formula_units_Z   1
loop_
 _symmetry_equiv_pos_site_id
 _symmetry_equiv_pos_as_xyz
  1  'x, y, z'
loop_
 _atom_site_type_symbol
 _atom_site_label
 _atom_site_symmetry_multiplicity
 _atom_site_fract_x
 _atom_site_fract_y
 _atom_site_fract_z
 _atom_site_occupancy
  Te  Te0  1  0.333355  0.666710  0.327075  1
  Te  Te1  1  0.333351  0.666703  0.702780  1
  Te  Te2  1  0.666647  0.333293  0.048818  1
  Te  Te3  1  0.666650  0.333299  0.424387  1
  Te  Te4  1  0.666651  0.333302  0.139041  1
  Te  Te5  1  0.666649  0.333297  0.514921  1
  Te  Te6  1  0.333349  0.666699  0.236512  1
  Te  Te7  1  0.333350  0.666702  0.612262  1
  Mo  Mo8  1  0.333306  0.666612  0.093918  1
  W  W9  1  0.333308  0.666616  0.469675  1
  W  W10  1  0.666692  0.333384  0.281815  1
  W  W11  1  0.666692  0.333384  0.657544  1
