# generated using pymatgen
data_MoWS4
_symmetry_space_group_name_H-M   'P 1'
_cell_length_a   3.19175196
_cell_length_b   3.19174054
_cell_length_c   35.84706481
_cell_angle_alpha   90.00023607
_cell_angle_beta   90.00000000
_cell_angle_gamma   120.00011839
_symmetry_Int_Tables_number   1
_chemical_formula_structural   MoWS4
_chemical_formula_sum   'Mo2 W2 S8'
_cell_volume   316.25720457
_cell_formula_units_Z   2
loop_
 _symmetry_equiv_pos_site_id
 _symmetry_equiv_pos_as_xyz
  1  'x, y, z'
loop_
 _atom_site_type_symbol
 _atom_site_label
 _atom_site_symmetry_multiplicity
 _atom_site_fract_x
 _atom_site_fract_y
 _atom_site_fract_z
 _atom_site_occupancy
  Mo  Mo0  1  0.333309  0.666618  0.093906  1
  Mo  Mo1  1  0.666692  0.333384  0.281781  1
  W  W2  1  0.333308  0.666616  0.469630  1
  W  W3  1  0.666694  0.333388  0.657550  1
  S  S4  1  0.333353  0.666706  0.325470  1
  S  S5  1  0.333355  0.666712  0.701438  1
  S  S6  1  0.666646  0.333291  0.050248  1
  S  S7  1  0.666647  0.333293  0.425812  1
  S  S8  1  0.666647  0.333294  0.137589  1
  S  S9  1  0.666643  0.333286  0.513530  1
  S  S10  1  0.333353  0.666706  0.238130  1
  S  S11  1  0.333352  0.666706  0.613664  1
