# generated using pymatgen
data_Zr3SiMo8
_symmetry_space_group_name_H-M   'P 1'
_cell_length_a   5.36472931
_cell_length_b   5.36480909
_cell_length_c   8.59693502
_cell_angle_alpha   90.00000000
_cell_angle_beta   89.98668170
_cell_angle_gamma   59.99951416
_symmetry_Int_Tables_number   1
_chemical_formula_structural   Zr3SiMo8
_chemical_formula_sum   'Zr3 Si1 Mo8'
_cell_volume   214.27633984
_cell_formula_units_Z   1
loop_
 _symmetry_equiv_pos_site_id
 _symmetry_equiv_pos_as_xyz
  1  'x, y, z'
loop_
 _atom_site_type_symbol
 _atom_site_label
 _atom_site_symmetry_multiplicity
 _atom_site_fract_x
 _atom_site_fract_y
 _atom_site_fract_z
 _atom_site_occupancy
  Zr  Zr0  1  0.666535  0.666732  0.444056  1
  Zr  Zr1  1  0.666630  0.666685  0.061654  1
  Zr  Zr2  1  0.333412  0.333294  0.936997  1
  Si  Si3  1  0.333395  0.333303  0.564707  1
  Mo  Mo4  1  0.000182  0.999909  0.497979  1
  Mo  Mo5  1  0.000111  0.999944  0.996738  1
  Mo  Mo6  1  0.829365  0.341137  0.745027  1
  Mo  Mo7  1  0.340952  0.829524  0.745078  1
  Mo  Mo8  1  0.829365  0.829498  0.745027  1
  Mo  Mo9  1  0.170779  0.658424  0.254244  1
  Mo  Mo10  1  0.658493  0.170753  0.254247  1
  Mo  Mo11  1  0.170779  0.170796  0.254244  1
