# generated using pymatgen
data_As2S2O9
_symmetry_space_group_name_H-M   'P 1'
_cell_length_a   6.86536440
_cell_length_b   6.86768013
_cell_length_c   17.48025998
_cell_angle_alpha   90.00000000
_cell_angle_beta   95.25886330
_cell_angle_gamma   90.00000000
_symmetry_Int_Tables_number   1
_chemical_formula_structural   As2S2O9
_chemical_formula_sum   'As8 S8 O36'
_cell_volume   820.70982604
_cell_formula_units_Z   4
loop_
 _symmetry_equiv_pos_site_id
 _symmetry_equiv_pos_as_xyz
  1  'x, y, z'
loop_
 _atom_site_type_symbol
 _atom_site_label
 _atom_site_symmetry_multiplicity
 _atom_site_fract_x
 _atom_site_fract_y
 _atom_site_fract_z
 _atom_site_occupancy
  As  As0  1  0.997038  0.985115  0.502484  1
  As  As1  1  0.997038  0.014885  0.002484  1
  As  As2  1  0.885364  0.129568  0.667838  1
  As  As3  1  0.885364  0.870432  0.167838  1
  As  As4  1  0.514866  0.626125  0.759329  1
  As  As5  1  0.514866  0.373875  0.259329  1
  As  As6  1  0.404999  0.484821  0.925230  1
  As  As7  1  0.404999  0.515179  0.425230  1
  S  S8  1  0.550542  0.022845  0.533560  1
  S  S9  1  0.550542  0.977155  0.033560  1
  S  S10  1  0.975766  0.678012  0.641129  1
  S  S11  1  0.975766  0.321988  0.141129  1
  S  S12  1  0.850776  0.530478  0.892518  1
  S  S13  1  0.850776  0.469522  0.392518  1
  S  S14  1  0.425623  0.175476  0.788571  1
  S  S15  1  0.425623  0.824524  0.288571  1
  O  O16  1  0.028496  0.133073  0.586971  1
  O  O17  1  0.028496  0.866927  0.086971  1
  O  O18  1  0.369591  0.628536  0.839499  1
  O  O19  1  0.369591  0.371464  0.339499  1
  O  O20  1  0.724277  0.010220  0.481494  1
  O  O21  1  0.724277  0.989780  0.981494  1
  O  O22  1  0.634976  0.116528  0.610456  1
  O  O23  1  0.634976  0.883472  0.110456  1
  O  O24  1  0.411495  0.160127  0.496897  1
  O  O25  1  0.411495  0.839873  0.996897  1
  O  O26  1  0.477841  0.830540  0.547465  1
  O  O27  1  0.477841  0.169460  0.047465  1
  O  O28  1  0.981649  0.741743  0.555857  1
  O  O29  1  0.981649  0.258257  0.055857  1
  O  O30  1  0.900239  0.856538  0.685149  1
  O  O31  1  0.900239  0.143461  0.185149  1
  O  O32  1  0.827595  0.528372  0.643008  1
  O  O33  1  0.827595  0.471628  0.143008  1
  O  O34  1  0.170722  0.628728  0.672712  1
  O  O35  1  0.170722  0.371272  0.172712  1
  O  O36  1  0.763739  0.634516  0.818359  1
  O  O37  1  0.763739  0.365484  0.318359  1
  O  O38  1  0.678129  0.511875  0.944929  1
  O  O39  1  0.678129  0.488125  0.444929  1
  O  O40  1  0.991788  0.661448  0.931736  1
  O  O41  1  0.991788  0.338552  0.431736  1
  O  O42  1  0.921985  0.339578  0.874506  1
  O  O43  1  0.921985  0.660422  0.374506  1
  O  O44  1  0.521345  0.349244  0.748159  1
  O  O45  1  0.521345  0.650756  0.248159  1
  O  O46  1  0.412689  0.239030  0.873579  1
  O  O47  1  0.412689  0.760970  0.373579  1
  O  O48  1  0.564959  0.017047  0.788428  1
  O  O49  1  0.564959  0.982953  0.288428  1
  O  O50  1  0.231013  0.139237  0.753537  1
  O  O51  1  0.231013  0.860763  0.253537  1
