# generated using pymatgen
data_Nb2CuSe4
_symmetry_space_group_name_H-M   'P 1'
_cell_length_a   3.53913523
_cell_length_b   3.53913523
_cell_length_c   13.90929132
_cell_angle_alpha   90.00170412
_cell_angle_beta   89.99829588
_cell_angle_gamma   119.99888381
_symmetry_Int_Tables_number   1
_chemical_formula_structural   Nb2CuSe4
_chemical_formula_sum   'Nb2 Cu1 Se4'
_cell_volume   150.88109738
_cell_formula_units_Z   1
loop_
 _symmetry_equiv_pos_site_id
 _symmetry_equiv_pos_as_xyz
  1  'x, y, z'
loop_
 _atom_site_type_symbol
 _atom_site_label
 _atom_site_symmetry_multiplicity
 _atom_site_fract_x
 _atom_site_fract_y
 _atom_site_fract_z
 _atom_site_occupancy
  Nb  Nb0  1  0.666662  0.333338  0.253721  1
  Nb  Nb1  1  0.333346  0.666654  0.748940  1
  Cu  Cu2  1  0.666686  0.333315  0.036584  1
  Se  Se3  1  0.666672  0.333328  0.632125  1
  Se  Se4  1  0.333331  0.666669  0.371678  1
  Se  Se5  1  0.333331  0.666669  0.132318  1
  Se  Se6  1  0.666672  0.333328  0.868635  1
