# generated using pymatgen
data_K3TaCl6
_symmetry_space_group_name_H-M   'P 1'
_cell_length_a   7.68439549
_cell_length_b   7.68419979
_cell_length_c   7.68563894
_cell_angle_alpha   59.97727231
_cell_angle_beta   59.94843699
_cell_angle_gamma   60.00828932
_symmetry_Int_Tables_number   1
_chemical_formula_structural   K3TaCl6
_chemical_formula_sum   'K3 Ta1 Cl6'
_cell_volume   320.74240915
_cell_formula_units_Z   1
loop_
 _symmetry_equiv_pos_site_id
 _symmetry_equiv_pos_as_xyz
  1  'x, y, z'
loop_
 _atom_site_type_symbol
 _atom_site_label
 _atom_site_symmetry_multiplicity
 _atom_site_fract_x
 _atom_site_fract_y
 _atom_site_fract_z
 _atom_site_occupancy
  K  K0  1  0.250004  0.249999  0.250024  1
  K  K1  1  0.749996  0.750001  0.749976  1
  K  K2  1  0.500000  0.500000  0.500000  1
  Ta  Ta3  1  0.000000  0.000000  0.000000  1
  Cl  Cl4  1  0.227441  0.772539  0.227457  1
  Cl  Cl5  1  0.772378  0.772410  0.227640  1
  Cl  Cl6  1  0.772559  0.227461  0.772543  1
  Cl  Cl7  1  0.772448  0.227505  0.227543  1
  Cl  Cl8  1  0.227552  0.772495  0.772457  1
  Cl  Cl9  1  0.227622  0.227590  0.772360  1
