# generated using pymatgen
data_Er2In3Cu
_symmetry_space_group_name_H-M   'P 1'
_cell_length_a   4.71991432
_cell_length_b   4.71991432
_cell_length_c   7.39423588
_cell_angle_alpha   89.99210324
_cell_angle_beta   90.00789676
_cell_angle_gamma   119.99499139
_symmetry_Int_Tables_number   1
_chemical_formula_structural   Er2In3Cu
_chemical_formula_sum   'Er2 In3 Cu1'
_cell_volume   142.66389412
_cell_formula_units_Z   1
loop_
 _symmetry_equiv_pos_site_id
 _symmetry_equiv_pos_as_xyz
  1  'x, y, z'
loop_
 _atom_site_type_symbol
 _atom_site_label
 _atom_site_symmetry_multiplicity
 _atom_site_fract_x
 _atom_site_fract_y
 _atom_site_fract_z
 _atom_site_occupancy
  Er  Er0  1  0.000002  0.999998  0.723985  1
  Er  Er1  1  0.999977  0.000023  0.263954  1
  In  In2  1  0.333328  0.666672  0.482419  1
  In  In3  1  0.333334  0.666666  0.052214  1
  In  In4  1  0.666630  0.333370  0.935305  1
  Cu  Cu5  1  0.666728  0.333272  0.542123  1
