# generated using pymatgen
data_Zn4CoO5
_symmetry_space_group_name_H-M   'P 1'
_cell_length_a   3.29568043
_cell_length_b   3.29568043
_cell_length_c   26.41461861
_cell_angle_alpha   89.99990813
_cell_angle_beta   90.00009187
_cell_angle_gamma   119.99650444
_symmetry_Int_Tables_number   1
_chemical_formula_structural   Zn4CoO5
_chemical_formula_sum   'Zn8 Co2 O10'
_cell_volume   248.47371859
_cell_formula_units_Z   2
loop_
 _symmetry_equiv_pos_site_id
 _symmetry_equiv_pos_as_xyz
  1  'x, y, z'
loop_
 _atom_site_type_symbol
 _atom_site_label
 _atom_site_symmetry_multiplicity
 _atom_site_fract_x
 _atom_site_fract_y
 _atom_site_fract_z
 _atom_site_occupancy
  Zn  Zn0  1  0.333323  0.666677  0.098686  1
  Zn  Zn1  1  0.333323  0.666677  0.298791  1
  Zn  Zn2  1  0.333324  0.666676  0.498721  1
  Zn  Zn3  1  0.333324  0.666676  0.698763  1
  Zn  Zn4  1  0.333325  0.666675  0.898682  1
  Zn  Zn5  1  0.666676  0.333324  0.198828  1
  Zn  Zn6  1  0.666677  0.333323  0.398760  1
  Zn  Zn7  1  0.666677  0.333323  0.598707  1
  Co  Co8  1  0.666677  0.333323  0.798732  1
  Co  Co9  1  0.666675  0.333325  0.998805  1
  O  O10  1  0.333324  0.666676  0.022411  1
  O  O11  1  0.333323  0.666677  0.222433  1
  O  O12  1  0.333324  0.666676  0.422536  1
  O  O13  1  0.333324  0.666676  0.622638  1
  O  O14  1  0.333324  0.666676  0.822582  1
  O  O15  1  0.666676  0.333324  0.122414  1
  O  O16  1  0.666676  0.333324  0.322462  1
  O  O17  1  0.666675  0.333325  0.522584  1
  O  O18  1  0.666677  0.333323  0.722677  1
  O  O19  1  0.666676  0.333324  0.922587  1
