# generated using pymatgen
data_Cd2TeSe
_symmetry_space_group_name_H-M   'P 1'
_cell_length_a   4.54059143
_cell_length_b   4.54058967
_cell_length_c   7.41021490
_cell_angle_alpha   90.00068103
_cell_angle_beta   89.99931494
_cell_angle_gamma   119.99857581
_symmetry_Int_Tables_number   1
_chemical_formula_structural   Cd2TeSe
_chemical_formula_sum   'Cd2 Te1 Se1'
_cell_volume   132.30990215
_cell_formula_units_Z   1
loop_
 _symmetry_equiv_pos_site_id
 _symmetry_equiv_pos_as_xyz
  1  'x, y, z'
loop_
 _atom_site_type_symbol
 _atom_site_label
 _atom_site_symmetry_multiplicity
 _atom_site_fract_x
 _atom_site_fract_y
 _atom_site_fract_z
 _atom_site_occupancy
  Cd  Cd0  1  0.333326  0.666674  0.484727  1
  Cd  Cd1  1  0.666674  0.333326  0.014399  1
  Te  Te2  1  0.666665  0.333335  0.625946  1
  Se  Se3  1  0.333336  0.666664  0.122929  1
