# generated using pymatgen
data_Cd3FeSe4
_symmetry_space_group_name_H-M   'P 1'
_cell_length_a   4.30908569
_cell_length_b   4.29880308
_cell_length_c   14.12132244
_cell_angle_alpha   90.00000000
_cell_angle_beta   90.20360929
_cell_angle_gamma   60.07891279
_symmetry_Int_Tables_number   1
_chemical_formula_structural   Cd3FeSe4
_chemical_formula_sum   'Cd3 Fe1 Se4'
_cell_volume   226.71477530
_cell_formula_units_Z   1
loop_
 _symmetry_equiv_pos_site_id
 _symmetry_equiv_pos_as_xyz
  1  'x, y, z'
loop_
 _atom_site_type_symbol
 _atom_site_label
 _atom_site_symmetry_multiplicity
 _atom_site_fract_x
 _atom_site_fract_y
 _atom_site_fract_z
 _atom_site_occupancy
  Cd  Cd0  1  0.665601  0.667200  0.237226  1
  Cd  Cd1  1  0.667916  0.666042  0.757687  1
  Cd  Cd2  1  0.331106  0.334447  0.498859  1
  Fe  Fe3  1  0.330851  0.334574  0.004135  1
  Se  Se4  1  0.669307  0.665347  0.046640  1
  Se  Se5  1  0.668409  0.665795  0.568216  1
  Se  Se6  1  0.332964  0.333518  0.308365  1
  Se  Se7  1  0.333846  0.333077  0.828872  1
