# generated using pymatgen
data_Sc3(Ga2Ni)2
_symmetry_space_group_name_H-M   'P 1'
_cell_length_a   4.21287880
_cell_length_b   4.21249589
_cell_length_c   19.90241339
_cell_angle_alpha   90.00000000
_cell_angle_beta   90.00354167
_cell_angle_gamma   60.00299928
_symmetry_Int_Tables_number   1
_chemical_formula_structural   Sc3(Ga2Ni)2
_chemical_formula_sum   'Sc6 Ga8 Ni4'
_cell_volume   305.89188348
_cell_formula_units_Z   2
loop_
 _symmetry_equiv_pos_site_id
 _symmetry_equiv_pos_as_xyz
  1  'x, y, z'
loop_
 _atom_site_type_symbol
 _atom_site_label
 _atom_site_symmetry_multiplicity
 _atom_site_fract_x
 _atom_site_fract_y
 _atom_site_fract_z
 _atom_site_occupancy
  Sc  Sc0  1  0.000049  0.999975  0.241537  1
  Sc  Sc1  1  -0.000001  0.000001  0.574629  1
  Sc  Sc2  1  0.000023  0.999988  0.908819  1
  Sc  Sc3  1  0.999928  0.000036  0.090984  1
  Sc  Sc4  1  0.999948  0.000026  0.421207  1
  Sc  Sc5  1  0.999932  0.000034  0.754971  1
  Ga  Ga6  1  0.666665  0.666668  0.494603  1
  Ga  Ga7  1  0.666648  0.666676  0.828592  1
  Ga  Ga8  1  0.666671  0.666664  0.019181  1
  Ga  Ga9  1  0.666622  0.666689  0.347934  1
  Ga  Ga10  1  0.666651  0.666674  0.682979  1
  Ga  Ga11  1  0.333393  0.333304  0.314578  1
  Ga  Ga12  1  0.333322  0.333339  0.645897  1
  Ga  Ga13  1  0.333307  0.333347  0.980049  1
  Ni  Ni14  1  0.333365  0.333318  0.181949  1
  Ni  Ni15  1  0.333388  0.333306  0.512444  1
  Ni  Ni16  1  0.333425  0.333288  0.847905  1
  Ni  Ni17  1  0.666664  0.666668  0.151743  1
