# generated using pymatgen
data_FeSnPt
_symmetry_space_group_name_H-M   'P 1'
_cell_length_a   4.02314212
_cell_length_b   4.02957032
_cell_length_c   15.85480401
_cell_angle_alpha   90.00000000
_cell_angle_beta   89.93751249
_cell_angle_gamma   59.94713090
_symmetry_Int_Tables_number   1
_chemical_formula_structural   FeSnPt
_chemical_formula_sum   'Fe4 Sn4 Pt4'
_cell_volume   222.47625418
_cell_formula_units_Z   4
loop_
 _symmetry_equiv_pos_site_id
 _symmetry_equiv_pos_as_xyz
  1  'x, y, z'
loop_
 _atom_site_type_symbol
 _atom_site_label
 _atom_site_symmetry_multiplicity
 _atom_site_fract_x
 _atom_site_fract_y
 _atom_site_fract_z
 _atom_site_occupancy
  Fe  Fe0  1  0.332513  0.333744  0.245097  1
  Fe  Fe1  1  0.332754  0.333623  0.562036  1
  Fe  Fe2  1  0.999677  0.000161  0.178968  1
  Fe  Fe3  1  0.999798  0.000101  0.498803  1
  Sn  Sn4  1  0.332653  0.333673  0.921514  1
  Sn  Sn5  1  0.667599  0.666201  0.107661  1
  Sn  Sn6  1  0.667414  0.666293  0.422407  1
  Sn  Sn7  1  0.667334  0.666333  0.736752  1
  Pt  Pt8  1  0.000139  0.999931  0.832062  1
  Pt  Pt9  1  0.000049  0.999975  0.012171  1
  Pt  Pt10  1  0.000134  -0.000067  0.331447  1
  Pt  Pt11  1  0.999936  0.000032  0.651083  1
