# generated using pymatgen
data_MoW3S8
_symmetry_space_group_name_H-M   'P 1'
_cell_length_a   3.19101683
_cell_length_b   3.19101541
_cell_length_c   35.85175866
_cell_angle_alpha   90.00033145
_cell_angle_beta   90.00002692
_cell_angle_gamma   119.99995514
_symmetry_Int_Tables_number   1
_chemical_formula_structural   MoW3S8
_chemical_formula_sum   'Mo1 W3 S8'
_cell_volume   316.15444253
_cell_formula_units_Z   1
loop_
 _symmetry_equiv_pos_site_id
 _symmetry_equiv_pos_as_xyz
  1  'x, y, z'
loop_
 _atom_site_type_symbol
 _atom_site_label
 _atom_site_symmetry_multiplicity
 _atom_site_fract_x
 _atom_site_fract_y
 _atom_site_fract_z
 _atom_site_occupancy
  Mo  Mo0  1  0.333304  0.666607  0.093900  1
  W  W1  1  0.333309  0.666617  0.469657  1
  W  W2  1  0.666693  0.333386  0.281789  1
  W  W3  1  0.666692  0.333386  0.657560  1
  S  S4  1  0.333353  0.666706  0.325653  1
  S  S5  1  0.333354  0.666709  0.701416  1
  S  S6  1  0.666643  0.333285  0.050254  1
  S  S7  1  0.666648  0.333295  0.425810  1
  S  S8  1  0.666648  0.333297  0.137573  1
  S  S9  1  0.666646  0.333292  0.513520  1
  S  S10  1  0.333354  0.666708  0.237938  1
  S  S11  1  0.333355  0.666712  0.613679  1
