# generated using pymatgen
data_KCaCl3
_symmetry_space_group_name_H-M   'P 1'
_cell_length_a   7.62848554
_cell_length_b   7.62848554
_cell_length_c   7.62848554
_cell_angle_alpha   89.95978452
_cell_angle_beta   120.02322113
_cell_angle_gamma   120.02322113
_symmetry_Int_Tables_number   1
_chemical_formula_structural   KCaCl3
_chemical_formula_sum   'K2 Ca2 Cl6'
_cell_volume   313.79600442
_cell_formula_units_Z   2
loop_
 _symmetry_equiv_pos_site_id
 _symmetry_equiv_pos_as_xyz
  1  'x, y, z'
loop_
 _atom_site_type_symbol
 _atom_site_label
 _atom_site_symmetry_multiplicity
 _atom_site_fract_x
 _atom_site_fract_y
 _atom_site_fract_z
 _atom_site_occupancy
  K  K0  1  0.000000  0.750000  0.750000  1
  K  K1  1  0.000000  0.250000  0.250000  1
  Ca  Ca2  1  0.500000  -0.000000  0.500000  1
  Ca  Ca3  1  0.500000  0.500000  0.000000  1
  Cl  Cl4  1  0.000115  0.750058  0.250058  1
  Cl  Cl5  1  -0.000115  0.249942  0.749942  1
  Cl  Cl6  1  0.500000  0.749942  0.750058  1
  Cl  Cl7  1  0.500000  0.250058  0.249942  1
  Cl  Cl8  1  0.500000  0.750000  0.250000  1
  Cl  Cl9  1  0.500000  0.250000  0.750000  1
