# generated using pymatgen
data_TeW2Se3
_symmetry_space_group_name_H-M   'P 1'
_cell_length_a   3.38076446
_cell_length_b   3.38072024
_cell_length_c   38.55062072
_cell_angle_alpha   90.00034291
_cell_angle_beta   89.99997591
_cell_angle_gamma   120.00041703
_symmetry_Int_Tables_number   1
_chemical_formula_structural   TeW2Se3
_chemical_formula_sum   'Te2 W4 Se6'
_cell_volume   381.57888108
_cell_formula_units_Z   2
loop_
 _symmetry_equiv_pos_site_id
 _symmetry_equiv_pos_as_xyz
  1  'x, y, z'
loop_
 _atom_site_type_symbol
 _atom_site_label
 _atom_site_symmetry_multiplicity
 _atom_site_fract_x
 _atom_site_fract_y
 _atom_site_fract_z
 _atom_site_occupancy
  Te  Te0  1  0.666649  0.333297  0.420621  1
  Te  Te1  1  0.666648  0.333296  0.518679  1
  W  W2  1  0.333311  0.666622  0.093921  1
  W  W3  1  0.333310  0.666620  0.469684  1
  W  W4  1  0.666688  0.333376  0.281794  1
  W  W5  1  0.666689  0.333379  0.657565  1
  Se  Se6  1  0.333354  0.666709  0.324904  1
  Se  Se7  1  0.333353  0.666707  0.700660  1
  Se  Se8  1  0.666641  0.333281  0.050813  1
  Se  Se9  1  0.666654  0.333307  0.137038  1
  Se  Se10  1  0.333350  0.666701  0.238657  1
  Se  Se11  1  0.333352  0.666705  0.614410  1
