# generated using pymatgen
data_Ta3AlFe8
_symmetry_space_group_name_H-M   'P 1'
_cell_length_a   4.72988826
_cell_length_b   4.72988826
_cell_length_c   7.83652107
_cell_angle_alpha   89.99877638
_cell_angle_beta   90.00122362
_cell_angle_gamma   119.96743431
_symmetry_Int_Tables_number   1
_chemical_formula_structural   Ta3AlFe8
_chemical_formula_sum   'Ta3 Al1 Fe8'
_cell_volume   151.87913686
_cell_formula_units_Z   1
loop_
 _symmetry_equiv_pos_site_id
 _symmetry_equiv_pos_as_xyz
  1  'x, y, z'
loop_
 _atom_site_type_symbol
 _atom_site_label
 _atom_site_symmetry_multiplicity
 _atom_site_fract_x
 _atom_site_fract_y
 _atom_site_fract_z
 _atom_site_occupancy
  Ta  Ta0  1  0.333429  0.666571  0.438667  1
  Ta  Ta1  1  0.333300  0.666700  0.067370  1
  Ta  Ta2  1  0.666721  0.333278  0.926153  1
  Al  Al3  1  0.666727  0.333273  0.561520  1
  Fe  Fe4  1  0.999891  0.000110  0.502358  1
  Fe  Fe5  1  -0.000008  0.000008  0.005315  1
  Fe  Fe6  1  0.170138  0.340172  0.748652  1
  Fe  Fe7  1  0.170022  0.829978  0.748610  1
  Fe  Fe8  1  0.659828  0.829862  0.748652  1
  Fe  Fe9  1  0.829544  0.659165  0.250905  1
  Fe  Fe10  1  0.829573  0.170427  0.250893  1
  Fe  Fe11  1  0.340835  0.170456  0.250905  1
