# generated using pymatgen
data_Cu27CO
_symmetry_space_group_name_H-M   'P 1'
_cell_length_a   7.54243566
_cell_length_b   7.54241467
_cell_length_c   14.03960969
_cell_angle_alpha   89.99929216
_cell_angle_beta   90.00220889
_cell_angle_gamma   120.00327934
_symmetry_Int_Tables_number   1
_chemical_formula_structural   Cu27CO
_chemical_formula_sum   'Cu27 C1 O1'
_cell_volume   691.66107211
_cell_formula_units_Z   1
loop_
 _symmetry_equiv_pos_site_id
 _symmetry_equiv_pos_as_xyz
  1  'x, y, z'
loop_
 _atom_site_type_symbol
 _atom_site_label
 _atom_site_symmetry_multiplicity
 _atom_site_fract_x
 _atom_site_fract_y
 _atom_site_fract_z
 _atom_site_occupancy
  Cu  Cu0  1  0.000000  0.000000  0.147910  1
  Cu  Cu1  1  0.222220  0.111110  0.000000  1
  Cu  Cu2  1  0.111110  0.222220  0.295820  1
  Cu  Cu3  1  0.333330  0.000000  0.147910  1
  Cu  Cu4  1  0.555560  0.111110  0.000000  1
  Cu  Cu5  1  0.444440  0.222220  0.295820  1
  Cu  Cu6  1  0.666670  0.000000  0.147910  1
  Cu  Cu7  1  0.888890  0.111110  0.000000  1
  Cu  Cu8  1  0.777780  0.222220  0.295820  1
  Cu  Cu9  1  0.000000  0.333330  0.147910  1
  Cu  Cu10  1  0.222220  0.444440  0.000000  1
  Cu  Cu11  1  0.111110  0.555560  0.295820  1
  Cu  Cu12  1  0.333330  0.333330  0.147910  1
  Cu  Cu13  1  0.555560  0.444440  0.000000  1
  Cu  Cu14  1  0.444440  0.555560  0.295820  1
  Cu  Cu15  1  0.666670  0.333330  0.147910  1
  Cu  Cu16  1  0.888890  0.444440  0.000000  1
  Cu  Cu17  1  0.777780  0.555560  0.295820  1
  Cu  Cu18  1  0.000000  0.666670  0.147910  1
  Cu  Cu19  1  0.222220  0.777780  0.000000  1
  Cu  Cu20  1  0.111110  0.888890  0.295820  1
  Cu  Cu21  1  0.333330  0.666670  0.147910  1
  Cu  Cu22  1  0.555560  0.777780  0.000000  1
  Cu  Cu23  1  0.444440  0.888890  0.295820  1
  Cu  Cu24  1  0.666670  0.666670  0.147910  1
  Cu  Cu25  1  0.888890  0.777780  0.000000  1
  Cu  Cu26  1  0.777780  0.888890  0.295820  1
  C  C27  1  0.222494  0.111249  0.398906  1
  O  O28  1  0.222335  0.111171  0.483276  1
