# generated using pymatgen
data_BaGe7N10
_symmetry_space_group_name_H-M   'P 1'
_cell_length_a   7.31781728
_cell_length_b   7.14696667
_cell_length_c   10.27104611
_cell_angle_alpha   90.00000000
_cell_angle_beta   105.95393724
_cell_angle_gamma   90.00000000
_symmetry_Int_Tables_number   1
_chemical_formula_structural   BaGe7N10
_chemical_formula_sum   'Ba2 Ge14 N20'
_cell_volume   516.48724333
_cell_formula_units_Z   2
loop_
 _symmetry_equiv_pos_site_id
 _symmetry_equiv_pos_as_xyz
  1  'x, y, z'
loop_
 _atom_site_type_symbol
 _atom_site_label
 _atom_site_symmetry_multiplicity
 _atom_site_fract_x
 _atom_site_fract_y
 _atom_site_fract_z
 _atom_site_occupancy
  Ba  Ba0  1  0.958096  0.070508  0.668059  1
  Ba  Ba1  1  0.958096  0.929492  0.168059  1
  Ge  Ge2  1  0.543991  0.968628  0.827269  1
  Ge  Ge3  1  0.543991  0.031372  0.327269  1
  Ge  Ge4  1  0.350165  0.029478  0.016506  1
  Ge  Ge5  1  0.350165  0.970522  0.516506  1
  Ge  Ge6  1  0.109424  0.391719  0.072709  1
  Ge  Ge7  1  0.109424  0.608281  0.572709  1
  Ge  Ge8  1  0.666423  0.361950  0.993478  1
  Ge  Ge9  1  0.666423  0.638050  0.493478  1
  Ge  Ge10  1  0.849266  0.625165  0.809668  1
  Ge  Ge11  1  0.849266  0.374835  0.309668  1
  Ge  Ge12  1  0.295391  0.619451  0.883559  1
  Ge  Ge13  1  0.295391  0.380549  0.383559  1
  Ge  Ge14  1  0.483971  0.370039  0.687587  1
  Ge  Ge15  1  0.483971  0.629961  0.187587  1
  N  N16  1  0.766575  0.856210  0.836586  1
  N  N17  1  0.766575  0.143790  0.336586  1
  N  N18  1  0.572634  0.123721  0.980152  1
  N  N19  1  0.572634  0.876279  0.480152  1
  N  N20  1  0.315763  0.873461  0.861264  1
  N  N21  1  0.315763  0.126539  0.361264  1
  N  N22  1  0.138002  0.157128  0.013874  1
  N  N23  1  0.138002  0.842872  0.513874  1
  N  N24  1  0.282083  0.497799  0.723496  1
  N  N25  1  0.282083  0.502201  0.223496  1
  N  N26  1  0.440037  0.115822  0.673597  1
  N  N27  1  0.440037  0.884178  0.173597  1
  N  N28  1  0.887420  0.385931  0.132650  1
  N  N29  1  0.887420  0.614069  0.632650  1
  N  N30  1  0.078848  0.584000  0.941713  1
  N  N31  1  0.078848  0.416000  0.441713  1
  N  N32  1  0.706951  0.410106  0.823907  1
  N  N33  1  0.706951  0.589894  0.323907  1
  N  N34  1  0.497257  0.537107  0.023227  1
  N  N35  1  0.497257  0.462893  0.523227  1
