# generated using pymatgen
data_Na(NbSe2)2
_symmetry_space_group_name_H-M   'P 1'
_cell_length_a   3.54744086
_cell_length_b   3.54744450
_cell_length_c   15.24266898
_cell_angle_alpha   89.99992708
_cell_angle_beta   90.00080462
_cell_angle_gamma   59.99959233
_symmetry_Int_Tables_number   1
_chemical_formula_structural   Na(NbSe2)2
_chemical_formula_sum   'Na1 Nb2 Se4'
_cell_volume   166.11950939
_cell_formula_units_Z   1
loop_
 _symmetry_equiv_pos_site_id
 _symmetry_equiv_pos_as_xyz
  1  'x, y, z'
loop_
 _atom_site_type_symbol
 _atom_site_label
 _atom_site_symmetry_multiplicity
 _atom_site_fract_x
 _atom_site_fract_y
 _atom_site_fract_z
 _atom_site_occupancy
  Na  Na0  1  0.666617  0.666692  0.000492  1
  Nb  Nb1  1  0.333362  0.333315  0.748935  1
  Nb  Nb2  1  0.666637  0.666685  0.251200  1
  Se  Se3  1  0.000019  -0.000007  0.859314  1
  Se  Se4  1  0.999976  0.000012  0.140875  1
  Se  Se5  1  0.999979  0.000010  0.358775  1
  Se  Se6  1  0.000011  0.999992  0.641309  1
