# generated using pymatgen
data_BaAs2F12
_symmetry_space_group_name_H-M   'P 1'
_cell_length_a   10.28853090
_cell_length_b   10.28853090
_cell_length_c   10.28853090
_cell_angle_alpha   90.00000000
_cell_angle_beta   90.00000000
_cell_angle_gamma   90.00000000
_symmetry_Int_Tables_number   1
_chemical_formula_structural   BaAs2F12
_chemical_formula_sum   'Ba4 As8 F48'
_cell_volume   1089.08079263
_cell_formula_units_Z   4
loop_
 _symmetry_equiv_pos_site_id
 _symmetry_equiv_pos_as_xyz
  1  'x, y, z'
loop_
 _atom_site_type_symbol
 _atom_site_label
 _atom_site_symmetry_multiplicity
 _atom_site_fract_x
 _atom_site_fract_y
 _atom_site_fract_z
 _atom_site_occupancy
  Ba  Ba0  1  0.500000  0.000000  0.000000  1
  Ba  Ba1  1  -0.000000  0.500000  0.000000  1
  Ba  Ba2  1  -0.000000  0.000000  0.500000  1
  Ba  Ba3  1  -0.000000  0.000000  0.000000  1
  As  As4  1  0.249997  0.249997  0.249997  1
  As  As5  1  0.750003  0.750003  0.249997  1
  As  As6  1  0.750003  0.249997  0.750003  1
  As  As7  1  0.249997  0.750003  0.750003  1
  As  As8  1  0.746154  0.746154  0.746154  1
  As  As9  1  0.253846  0.253846  0.746154  1
  As  As10  1  0.253846  0.746154  0.253846  1
  As  As11  1  0.746154  0.253846  0.253846  1
  F  F12  1  0.129485  0.129485  0.298966  1
  F  F13  1  0.870515  0.870515  0.298966  1
  F  F14  1  0.870515  0.129485  0.701034  1
  F  F15  1  0.298966  0.129485  0.129485  1
  F  F16  1  0.129485  0.870515  0.701034  1
  F  F17  1  0.298966  0.870515  0.870515  1
  F  F18  1  0.701034  0.870515  0.129485  1
  F  F19  1  0.701034  0.129485  0.870515  1
  F  F20  1  0.129485  0.298966  0.129485  1
  F  F21  1  0.129485  0.701034  0.870515  1
  F  F22  1  0.870515  0.701034  0.129485  1
  F  F23  1  0.870515  0.298966  0.870515  1
  F  F24  1  0.363449  0.363449  0.812013  1
  F  F25  1  0.636551  0.636551  0.812013  1
  F  F26  1  0.636551  0.363449  0.187987  1
  F  F27  1  0.812013  0.363449  0.363449  1
  F  F28  1  0.363449  0.636551  0.187987  1
  F  F29  1  0.812013  0.636551  0.636551  1
  F  F30  1  0.187987  0.636551  0.363449  1
  F  F31  1  0.187987  0.363449  0.636551  1
  F  F32  1  0.363449  0.812013  0.363449  1
  F  F33  1  0.363449  0.187987  0.636551  1
  F  F34  1  0.636551  0.187987  0.363449  1
  F  F35  1  0.636551  0.812013  0.636551  1
  F  F36  1  0.133513  0.133513  0.696604  1
  F  F37  1  0.866487  0.866487  0.696604  1
  F  F38  1  0.866487  0.133513  0.303396  1
  F  F39  1  0.696604  0.133513  0.133513  1
  F  F40  1  0.133513  0.866487  0.303396  1
  F  F41  1  0.696604  0.866487  0.866487  1
  F  F42  1  0.303396  0.866487  0.133513  1
  F  F43  1  0.303396  0.133513  0.866487  1
  F  F44  1  0.133513  0.696604  0.133513  1
  F  F45  1  0.133513  0.303396  0.866487  1
  F  F46  1  0.866487  0.303396  0.133513  1
  F  F47  1  0.866487  0.696604  0.866487  1
  F  F48  1  0.359479  0.359479  0.183943  1
  F  F49  1  0.640521  0.640521  0.183943  1
  F  F50  1  0.640521  0.359479  0.816057  1
  F  F51  1  0.183943  0.359479  0.359479  1
  F  F52  1  0.359479  0.640521  0.816057  1
  F  F53  1  0.183943  0.640521  0.640521  1
  F  F54  1  0.816057  0.640521  0.359479  1
  F  F55  1  0.816057  0.359479  0.640521  1
  F  F56  1  0.359479  0.183943  0.359479  1
  F  F57  1  0.359479  0.816057  0.640521  1
  F  F58  1  0.640521  0.816057  0.359479  1
  F  F59  1  0.640521  0.183943  0.640521  1
