# generated using pymatgen
data_Sm3(P3Pd10)2
_symmetry_space_group_name_H-M   'P 1'
_cell_length_a   8.72962021
_cell_length_b   8.72962021
_cell_length_c   8.72962021
_cell_angle_alpha   60.00000000
_cell_angle_beta   60.00000000
_cell_angle_gamma   60.00000000
_symmetry_Int_Tables_number   1
_chemical_formula_structural   Sm3(P3Pd10)2
_chemical_formula_sum   'Sm3 P6 Pd20'
_cell_volume   470.40404967
_cell_formula_units_Z   1
loop_
 _symmetry_equiv_pos_site_id
 _symmetry_equiv_pos_as_xyz
  1  'x, y, z'
loop_
 _atom_site_type_symbol
 _atom_site_label
 _atom_site_symmetry_multiplicity
 _atom_site_fract_x
 _atom_site_fract_y
 _atom_site_fract_z
 _atom_site_occupancy
  Sm  Sm0  1  0.750000  0.750000  0.750000  1
  Sm  Sm1  1  0.250000  0.250000  0.250000  1
  Sm  Sm2  1  -0.000000  0.000000  0.000000  1
  P  P3  1  0.738146  0.738146  0.261854  1
  P  P4  1  0.261854  0.261854  0.738146  1
  P  P5  1  0.738146  0.261854  0.738146  1
  P  P6  1  0.261854  0.738146  0.261854  1
  P  P7  1  0.261854  0.738146  0.738146  1
  P  P8  1  0.738146  0.261854  0.261854  1
  Pd  Pd9  1  0.614315  0.614315  0.614315  1
  Pd  Pd10  1  0.385685  0.385685  0.385685  1
  Pd  Pd11  1  0.157056  0.614315  0.614315  1
  Pd  Pd12  1  0.614315  0.157056  0.614315  1
  Pd  Pd13  1  0.842944  0.385685  0.385685  1
  Pd  Pd14  1  0.385685  0.842944  0.385685  1
  Pd  Pd15  1  0.614315  0.614315  0.157056  1
  Pd  Pd16  1  0.385685  0.385685  0.842944  1
  Pd  Pd17  1  0.000000  -0.000000  0.653212  1
  Pd  Pd18  1  -0.000000  0.000000  0.346788  1
  Pd  Pd19  1  0.346788  0.653212  0.000000  1
  Pd  Pd20  1  0.653212  0.346788  -0.000000  1
  Pd  Pd21  1  0.000000  0.653212  -0.000000  1
  Pd  Pd22  1  0.653212  -0.000000  0.346788  1
  Pd  Pd23  1  0.000000  0.346788  -0.000000  1
  Pd  Pd24  1  0.346788  0.000000  0.653212  1
  Pd  Pd25  1  0.653212  -0.000000  0.000000  1
  Pd  Pd26  1  0.346788  0.000000  -0.000000  1
  Pd  Pd27  1  0.000000  0.653212  0.346788  1
  Pd  Pd28  1  -0.000000  0.346788  0.653212  1
