# generated using pymatgen
data_Ta(Cu3O4)2
_symmetry_space_group_name_H-M   'P 1'
_cell_length_a   6.52754553
_cell_length_b   6.52471251
_cell_length_c   6.53070806
_cell_angle_alpha   60.06070378
_cell_angle_beta   60.07660065
_cell_angle_gamma   60.07616004
_symmetry_Int_Tables_number   1
_chemical_formula_structural   Ta(Cu3O4)2
_chemical_formula_sum   'Ta1 Cu6 O8'
_cell_volume   196.99549347
_cell_formula_units_Z   1
loop_
 _symmetry_equiv_pos_site_id
 _symmetry_equiv_pos_as_xyz
  1  'x, y, z'
loop_
 _atom_site_type_symbol
 _atom_site_label
 _atom_site_symmetry_multiplicity
 _atom_site_fract_x
 _atom_site_fract_y
 _atom_site_fract_z
 _atom_site_occupancy
  Ta  Ta0  1  0.499999  0.499999  0.500001  1
  Cu  Cu1  1  0.500001  0.000000  0.499997  1
  Cu  Cu2  1  0.500001  0.500000  0.999999  1
  Cu  Cu3  1  0.999999  0.500001  0.500000  1
  Cu  Cu4  1  0.999999  0.499999  0.000002  1
  Cu  Cu5  1  1.000000  0.999999  0.500000  1
  Cu  Cu6  1  0.500002  1.000000  1.000000  1
  O  O7  1  0.634459  0.096727  0.634629  1
  O  O8  1  0.096642  0.634382  0.634700  1
  O  O9  1  0.634668  0.634529  0.096644  1
  O  O10  1  0.903357  0.365617  0.365303  1
  O  O11  1  0.634488  0.634322  0.634405  1
  O  O12  1  0.365512  0.365680  0.365594  1
  O  O13  1  0.365540  0.903272  0.365370  1
  O  O14  1  0.365333  0.365471  0.903356  1
