# generated using pymatgen
data_Mg(AgO2)2
_symmetry_space_group_name_H-M   'P 1'
_cell_length_a   6.43320842
_cell_length_b   6.43492438
_cell_length_c   18.92631913
_cell_angle_alpha   59.32062643
_cell_angle_beta   59.35155092
_cell_angle_gamma   60.00494601
_symmetry_Int_Tables_number   1
_chemical_formula_structural   Mg(AgO2)2
_chemical_formula_sum   'Mg6 Ag12 O24'
_cell_volume   548.41108764
_cell_formula_units_Z   6
loop_
 _symmetry_equiv_pos_site_id
 _symmetry_equiv_pos_as_xyz
  1  'x, y, z'
loop_
 _atom_site_type_symbol
 _atom_site_label
 _atom_site_symmetry_multiplicity
 _atom_site_fract_x
 _atom_site_fract_y
 _atom_site_fract_z
 _atom_site_occupancy
  Mg  Mg0  1  0.114888  0.114994  0.051704  1
  Mg  Mg1  1  0.119125  0.118980  0.380875  1
  Mg  Mg2  1  0.499463  0.499500  0.333852  1
  Mg  Mg3  1  0.118938  0.118889  0.714426  1
  Mg  Mg4  1  0.496886  0.496853  0.003098  1
  Mg  Mg5  1  0.879881  0.879998  0.620250  1
  Ag  Ag6  1  0.499292  0.499305  0.166659  1
  Ag  Ag7  1  0.499416  0.001330  0.166633  1
  Ag  Ag8  1  0.498406  0.498402  0.498569  1
  Ag  Ag9  1  0.001254  0.499438  0.166649  1
  Ag  Ag10  1  0.498392  0.008004  0.498468  1
  Ag  Ag11  1  0.501289  0.501282  0.665426  1
  Ag  Ag12  1  0.878116  0.878153  0.288423  1
  Ag  Ag13  1  0.499779  0.499805  0.835247  1
  Ag  Ag14  1  0.007919  0.498397  0.498490  1
  Ag  Ag15  1  0.499882  0.994326  0.835256  1
  Ag  Ag16  1  0.994358  0.499866  0.835260  1
  Ag  Ag17  1  0.880772  0.880817  0.952484  1
  O  O18  1  0.260988  0.261178  0.086359  1
  O  O19  1  0.250320  0.250867  0.249301  1
  O  O20  1  0.260952  0.718601  0.086378  1
  O  O21  1  0.718626  0.261001  0.086401  1
  O  O22  1  0.265197  0.264833  0.413665  1
  O  O23  1  0.301211  0.736546  0.242064  1
  O  O24  1  0.251841  0.251938  0.581668  1
  O  O25  1  0.736656  0.301239  0.242074  1
  O  O26  1  0.744588  0.743833  0.089433  1
  O  O27  1  0.264973  0.728839  0.413664  1
  O  O28  1  0.728982  0.264727  0.413684  1
  O  O29  1  0.736334  0.736061  0.242050  1
  O  O30  1  0.250052  0.249919  0.758981  1
  O  O31  1  0.268290  0.750175  0.577440  1
  O  O32  1  0.749909  0.268430  0.577453  1
  O  O33  1  0.246736  0.246958  0.919804  1
  O  O34  1  0.737984  0.737909  0.428495  1
  O  O35  1  0.250282  0.723194  0.758810  1
  O  O36  1  0.723187  0.250185  0.758831  1
  O  O37  1  0.749701  0.750123  0.577368  1
  O  O38  1  0.299191  0.732669  0.911632  1
  O  O39  1  0.732547  0.299207  0.911674  1
  O  O40  1  0.750596  0.750353  0.749441  1
  O  O41  1  0.732797  0.732878  0.911560  1
