# generated using pymatgen
data_MoWSe4
_symmetry_space_group_name_H-M   'P 1'
_cell_length_a   3.32290742
_cell_length_b   3.32284624
_cell_length_c   23.61932180
_cell_angle_alpha   90.00004684
_cell_angle_beta   90.00000000
_cell_angle_gamma   120.00060902
_symmetry_Int_Tables_number   1
_chemical_formula_structural   MoWSe4
_chemical_formula_sum   'Mo1 W1 Se4'
_cell_volume   225.85196688
_cell_formula_units_Z   1
loop_
 _symmetry_equiv_pos_site_id
 _symmetry_equiv_pos_as_xyz
  1  'x, y, z'
loop_
 _atom_site_type_symbol
 _atom_site_label
 _atom_site_symmetry_multiplicity
 _atom_site_fract_x
 _atom_site_fract_y
 _atom_site_fract_z
 _atom_site_occupancy
  Mo  Mo0  1  0.666689  0.333379  0.451419  1
  W  W1  1  0.333313  0.666627  0.150444  1
  Se  Se2  1  0.333353  0.666708  0.522380  1
  Se  Se3  1  0.666647  0.333293  0.079149  1
  Se  Se4  1  0.666643  0.333286  0.221760  1
  Se  Se5  1  0.333353  0.666708  0.380452  1
