# generated using pymatgen
data_Ca(BiO2)2
_symmetry_space_group_name_H-M   'P 1'
_cell_length_a   7.05937309
_cell_length_b   7.05937870
_cell_length_c   21.19219091
_cell_angle_alpha   60.02381612
_cell_angle_beta   60.02391291
_cell_angle_gamma   59.99809192
_symmetry_Int_Tables_number   1
_chemical_formula_structural   Ca(BiO2)2
_chemical_formula_sum   'Ca6 Bi12 O24'
_cell_volume   747.03984953
_cell_formula_units_Z   6
loop_
 _symmetry_equiv_pos_site_id
 _symmetry_equiv_pos_as_xyz
  1  'x, y, z'
loop_
 _atom_site_type_symbol
 _atom_site_label
 _atom_site_symmetry_multiplicity
 _atom_site_fract_x
 _atom_site_fract_y
 _atom_site_fract_z
 _atom_site_occupancy
  Ca  Ca0  1  0.123083  0.123083  0.043586  1
  Ca  Ca1  1  0.122387  0.122382  0.377625  1
  Ca  Ca2  1  0.499761  0.499761  0.333573  1
  Ca  Ca3  1  0.124981  0.124983  0.708352  1
  Ca  Ca4  1  0.498666  0.498670  0.001327  1
  Ca  Ca5  1  0.875216  0.875217  0.624788  1
  Bi  Bi6  1  0.498637  0.498637  0.165244  1
  Bi  Bi7  1  0.498631  0.007043  0.165240  1
  Bi  Bi8  1  0.499705  0.499706  0.497317  1
  Bi  Bi9  1  0.007042  0.498632  0.165241  1
  Bi  Bi10  1  0.499682  0.008650  0.497328  1
  Bi  Bi11  1  0.504137  0.504141  0.662514  1
  Bi  Bi12  1  0.877865  0.877864  0.288778  1
  Bi  Bi13  1  0.500070  0.500073  0.832539  1
  Bi  Bi14  1  0.008651  0.499675  0.497329  1
  Bi  Bi15  1  0.500118  0.002195  0.832517  1
  Bi  Bi16  1  0.002193  0.500118  0.832518  1
  Bi  Bi17  1  0.877546  0.877545  0.955786  1
  O  O18  1  0.259160  0.259160  0.088240  1
  O  O19  1  0.258980  0.258977  0.241054  1
  O  O20  1  0.259129  0.716971  0.088250  1
  O  O21  1  0.716970  0.259131  0.088250  1
  O  O22  1  0.258471  0.258469  0.420969  1
  O  O23  1  0.271482  0.741398  0.248583  1
  O  O24  1  0.259821  0.259814  0.573519  1
  O  O25  1  0.741394  0.271484  0.248583  1
  O  O26  1  0.747020  0.747018  0.086330  1
  O  O27  1  0.258478  0.720169  0.420966  1
  O  O28  1  0.720174  0.258475  0.420966  1
  O  O29  1  0.741385  0.741386  0.248590  1
  O  O30  1  0.254620  0.254624  0.754994  1
  O  O31  1  0.272465  0.740031  0.582525  1
  O  O32  1  0.740030  0.272464  0.582527  1
  O  O33  1  0.257440  0.257440  0.909216  1
  O  O34  1  0.747398  0.747392  0.419255  1
  O  O35  1  0.254532  0.725767  0.755032  1
  O  O36  1  0.725763  0.254536  0.755031  1
  O  O37  1  0.739978  0.739973  0.582539  1
  O  O38  1  0.271901  0.741204  0.915224  1
  O  O39  1  0.741203  0.271900  0.915224  1
  O  O40  1  0.742653  0.742653  0.757311  1
  O  O41  1  0.741184  0.741187  0.915221  1
