# generated using pymatgen
data_Ti6Ga16Ru7
_symmetry_space_group_name_H-M   'P 1'
_cell_length_a   8.66387311
_cell_length_b   8.66387311
_cell_length_c   8.66387311
_cell_angle_alpha   60.00000000
_cell_angle_beta   60.00000000
_cell_angle_gamma   60.00000000
_symmetry_Int_Tables_number   1
_chemical_formula_structural   Ti6Ga16Ru7
_chemical_formula_sum   'Ti6 Ga16 Ru7'
_cell_volume   459.85535886
_cell_formula_units_Z   1
loop_
 _symmetry_equiv_pos_site_id
 _symmetry_equiv_pos_as_xyz
  1  'x, y, z'
loop_
 _atom_site_type_symbol
 _atom_site_label
 _atom_site_symmetry_multiplicity
 _atom_site_fract_x
 _atom_site_fract_y
 _atom_site_fract_z
 _atom_site_occupancy
  Ti  Ti0  1  0.723329  0.276671  0.276671  1
  Ti  Ti1  1  0.723329  0.276671  0.723329  1
  Ti  Ti2  1  0.723329  0.723329  0.276671  1
  Ti  Ti3  1  0.276671  0.723329  0.723329  1
  Ti  Ti4  1  0.276671  0.723329  0.276671  1
  Ti  Ti5  1  0.276671  0.276671  0.723329  1
  Ga  Ga6  1  0.630672  0.123109  0.123109  1
  Ga  Ga7  1  0.123109  0.630672  0.123109  1
  Ga  Ga8  1  0.123109  0.123109  0.630672  1
  Ga  Ga9  1  0.123109  0.123109  0.123109  1
  Ga  Ga10  1  0.369328  0.876891  0.876891  1
  Ga  Ga11  1  0.876891  0.369328  0.876891  1
  Ga  Ga12  1  0.876891  0.876891  0.369328  1
  Ga  Ga13  1  0.876891  0.876891  0.876891  1
  Ga  Ga14  1  0.943579  0.352140  0.352140  1
  Ga  Ga15  1  0.352140  0.943579  0.352140  1
  Ga  Ga16  1  0.352140  0.352140  0.943579  1
  Ga  Ga17  1  0.352140  0.352140  0.352140  1
  Ga  Ga18  1  0.056421  0.647860  0.647860  1
  Ga  Ga19  1  0.647860  0.056421  0.647860  1
  Ga  Ga20  1  0.647860  0.647860  0.056421  1
  Ga  Ga21  1  0.647860  0.647860  0.647860  1
  Ru  Ru22  1  0.000000  -0.000000  -0.000000  1
  Ru  Ru23  1  0.500000  -0.000000  -0.000000  1
  Ru  Ru24  1  0.500000  -0.000000  0.500000  1
  Ru  Ru25  1  0.500000  0.500000  -0.000000  1
  Ru  Ru26  1  0.000000  0.500000  0.500000  1
  Ru  Ru27  1  0.000000  0.500000  -0.000000  1
  Ru  Ru28  1  0.000000  -0.000000  0.500000  1
