# generated using pymatgen
data_Nb10N11O
_symmetry_space_group_name_H-M   'P 1'
_cell_length_a   5.25719947
_cell_length_b   10.55240742
_cell_length_c   10.55060501
_cell_angle_alpha   90.00000000
_cell_angle_beta   90.00000000
_cell_angle_gamma   120.14079229
_symmetry_Int_Tables_number   1
_chemical_formula_structural   Nb10N11O
_chemical_formula_sum   'Nb20 N22 O2'
_cell_volume   506.16966188
_cell_formula_units_Z   2
loop_
 _symmetry_equiv_pos_site_id
 _symmetry_equiv_pos_as_xyz
  1  'x, y, z'
loop_
 _atom_site_type_symbol
 _atom_site_label
 _atom_site_symmetry_multiplicity
 _atom_site_fract_x
 _atom_site_fract_y
 _atom_site_fract_z
 _atom_site_occupancy
  Nb  Nb0  1  0.000904  0.838104  0.749737  1
  Nb  Nb1  1  -0.000000  0.662462  0.250825  1
  Nb  Nb2  1  0.333079  0.832766  0.495259  1
  Nb  Nb3  1  0.352282  0.830829  -0.009752  1
  Nb  Nb4  1  0.324169  0.663082  0.747475  1
  Nb  Nb5  1  0.329463  0.503724  0.248278  1
  Nb  Nb6  1  0.670289  0.839222  0.251570  1
  Nb  Nb7  1  -0.000000  0.162462  0.249175  1
  Nb  Nb8  1  0.333079  0.332766  0.004741  1
  Nb  Nb9  1  0.643096  0.655049  -0.005903  1
  Nb  Nb10  1  0.352282  0.330829  0.509752  1
  Nb  Nb11  1  0.669097  0.665804  0.499761  1
  Nb  Nb12  1  0.324169  0.163082  0.752525  1
  Nb  Nb13  1  0.676755  0.501041  0.751318  1
  Nb  Nb14  1  0.329463  0.003724  0.251722  1
  Nb  Nb15  1  0.670289  0.339222  0.248430  1
  Nb  Nb16  1  0.669097  0.165804  0.000239  1
  Nb  Nb17  1  0.643096  0.155049  0.505903  1
  Nb  Nb18  1  0.000904  0.338104  0.750263  1
  Nb  Nb19  1  0.676755  0.001041  0.748682  1
  N  N20  1  0.000513  0.670652  0.877647  1
  N  N21  1  0.664230  0.003251  0.375685  1
  N  N22  1  0.338318  0.670611  0.122551  1
  N  N23  1  0.336796  0.669394  0.375948  1
  N  N24  1  0.660283  0.830581  0.620453  1
  N  N25  1  0.666453  0.831692  0.874203  1
  N  N26  1  -0.000565  0.171496  0.876770  1
  N  N27  1  0.333835  0.498855  0.875816  1
  N  N28  1  0.342149  0.500485  0.622157  1
  N  N29  1  0.664230  0.503251  0.124315  1
  N  N30  1  0.659490  0.499059  0.377897  1
  N  N31  1  -0.001186  0.831367  0.373230  1
  N  N32  1  0.336796  0.169394  0.124052  1
  N  N33  1  0.338318  0.170611  0.377449  1
  N  N34  1  -0.000565  0.671496  0.623230  1
  N  N35  1  0.666453  0.331692  0.625797  1
  N  N36  1  0.660283  0.330581  0.879547  1
  N  N37  1  0.342149  0.000485  0.877843  1
  N  N38  1  0.333835  -0.001145  0.624184  1
  N  N39  1  0.659490  -0.000941  0.122103  1
  N  N40  1  -0.001186  0.331367  0.126770  1
  N  N41  1  0.000513  0.170652  0.622353  1
  O  O42  1  0.000551  0.830474  0.120625  1
  O  O43  1  0.000551  0.330474  0.379375  1
