# generated using pymatgen
data_YZr2Ni15
_symmetry_space_group_name_H-M   'P 1'
_cell_length_a   4.77707995
_cell_length_b   4.77707995
_cell_length_c   11.69867703
_cell_angle_alpha   90.00000000
_cell_angle_beta   90.00000000
_cell_angle_gamma   120.00000000
_symmetry_Int_Tables_number   1
_chemical_formula_structural   YZr2Ni15
_chemical_formula_sum   'Y1 Zr2 Ni15'
_cell_volume   231.20243476
_cell_formula_units_Z   1
loop_
 _symmetry_equiv_pos_site_id
 _symmetry_equiv_pos_as_xyz
  1  'x, y, z'
loop_
 _atom_site_type_symbol
 _atom_site_label
 _atom_site_symmetry_multiplicity
 _atom_site_fract_x
 _atom_site_fract_y
 _atom_site_fract_z
 _atom_site_occupancy
  Y  Y0  1  0.000000  0.000000  0.999845  1
  Zr  Zr1  1  0.666667  0.333333  0.334909  1
  Zr  Zr2  1  0.333333  0.666667  0.665581  1
  Ni  Ni3  1  0.830596  0.169404  0.788680  1
  Ni  Ni4  1  0.499245  0.500755  0.128931  1
  Ni  Ni5  1  0.165124  0.834876  0.458710  1
  Ni  Ni6  1  0.830596  0.661192  0.788680  1
  Ni  Ni7  1  0.499245  0.998489  0.128931  1
  Ni  Ni8  1  0.165124  0.330249  0.458710  1
  Ni  Ni9  1  0.666667  0.333333  0.956410  1
  Ni  Ni10  1  0.333333  0.666667  0.291909  1
  Ni  Ni11  1  0.000000  0.000000  0.622844  1
  Ni  Ni12  1  0.338808  0.169404  0.788680  1
  Ni  Ni13  1  0.001511  0.500755  0.128931  1
  Ni  Ni14  1  0.669751  0.834876  0.458710  1
  Ni  Ni15  1  -0.000000  0.000000  0.255305  1
  Ni  Ni16  1  0.666667  0.333333  0.583087  1
  Ni  Ni17  1  0.333333  0.666667  0.911147  1
