# generated using pymatgen
data_Mg(FeO2)2
_symmetry_space_group_name_H-M   'P 1'
_cell_length_a   6.04975359
_cell_length_b   6.04939752
_cell_length_c   18.13924093
_cell_angle_alpha   59.98276507
_cell_angle_beta   59.98040043
_cell_angle_gamma   60.00180100
_symmetry_Int_Tables_number   1
_chemical_formula_structural   Mg(FeO2)2
_chemical_formula_sum   'Mg6 Fe12 O24'
_cell_volume   469.28737982
_cell_formula_units_Z   6
loop_
 _symmetry_equiv_pos_site_id
 _symmetry_equiv_pos_as_xyz
  1  'x, y, z'
loop_
 _atom_site_type_symbol
 _atom_site_label
 _atom_site_symmetry_multiplicity
 _atom_site_fract_x
 _atom_site_fract_y
 _atom_site_fract_z
 _atom_site_occupancy
  Mg  Mg0  1  0.121418  0.121506  0.045183  1
  Mg  Mg1  1  0.120646  0.120700  0.379329  1
  Mg  Mg2  1  0.497799  0.497759  0.335587  1
  Mg  Mg3  1  0.124688  0.124730  0.708608  1
  Mg  Mg4  1  0.497908  0.497955  0.002060  1
  Mg  Mg5  1  0.877414  0.877390  0.622605  1
  Fe  Fe6  1  0.497148  0.497162  0.165884  1
  Fe  Fe7  1  0.497154  0.008047  0.165880  1
  Fe  Fe8  1  0.498737  0.498763  0.498677  1
  Fe  Fe9  1  0.008059  0.497139  0.165888  1
  Fe  Fe10  1  0.498745  0.006494  0.498670  1
  Fe  Fe11  1  0.503188  0.503184  0.663477  1
  Fe  Fe12  1  0.879265  0.879184  0.287470  1
  Fe  Fe13  1  0.499271  0.499293  0.832294  1
  Fe  Fe14  1  0.006496  0.498759  0.498670  1
  Fe  Fe15  1  0.499265  0.004516  0.832296  1
  Fe  Fe16  1  0.004509  0.499268  0.832297  1
  Fe  Fe17  1  0.876843  0.876828  0.956484  1
  O  O18  1  0.255873  0.255886  0.089654  1
  O  O19  1  0.257818  0.257724  0.242241  1
  O  O20  1  0.255853  0.719283  0.089666  1
  O  O21  1  0.719221  0.255934  0.089641  1
  O  O22  1  0.254528  0.254501  0.423762  1
  O  O23  1  0.272907  0.745383  0.245453  1
  O  O24  1  0.258291  0.258342  0.574993  1
  O  O25  1  0.745537  0.272823  0.245416  1
  O  O26  1  0.744306  0.744353  0.088982  1
  O  O27  1  0.254520  0.719709  0.423786  1
  O  O28  1  0.719672  0.254539  0.423777  1
  O  O29  1  0.745512  0.745405  0.245431  1
  O  O30  1  0.260193  0.260164  0.753543  1
  O  O31  1  0.282545  0.739101  0.579750  1
  O  O32  1  0.739110  0.282544  0.579732  1
  O  O33  1  0.259061  0.259102  0.907560  1
  O  O34  1  0.747074  0.747062  0.419641  1
  O  O35  1  0.260192  0.718969  0.753545  1
  O  O36  1  0.718944  0.260211  0.753532  1
  O  O37  1  0.739115  0.739149  0.579741  1
  O  O38  1  0.269202  0.746628  0.912498  1
  O  O39  1  0.746635  0.269182  0.912489  1
  O  O40  1  0.738701  0.738658  0.761317  1
  O  O41  1  0.746636  0.746672  0.912492  1
