# generated using pymatgen
data_Mn12HO24
_symmetry_space_group_name_H-M   'P 1'
_cell_length_a   5.91434217
_cell_length_b   14.01222319
_cell_length_c   9.14116619
_cell_angle_alpha   92.08725417
_cell_angle_beta   89.99911788
_cell_angle_gamma   89.99891400
_symmetry_Int_Tables_number   1
_chemical_formula_structural   Mn12HO24
_chemical_formula_sum   'Mn24 H2 O48'
_cell_volume   757.05399645
_cell_formula_units_Z   2
loop_
 _symmetry_equiv_pos_site_id
 _symmetry_equiv_pos_as_xyz
  1  'x, y, z'
loop_
 _atom_site_type_symbol
 _atom_site_label
 _atom_site_symmetry_multiplicity
 _atom_site_fract_x
 _atom_site_fract_y
 _atom_site_fract_z
 _atom_site_occupancy
  Mn  Mn0  1  0.749864  0.501108  0.502227  1
  Mn  Mn1  1  0.751404  0.500515  0.999909  1
  Mn  Mn2  1  0.250101  0.499796  0.499814  1
  Mn  Mn3  1  0.248486  0.501124  0.001036  1
  Mn  Mn4  1  0.749983  0.158674  0.761608  1
  Mn  Mn5  1  0.749622  0.159630  0.260466  1
  Mn  Mn6  1  0.249906  0.157917  0.757169  1
  Mn  Mn7  1  0.250003  0.155057  0.261948  1
  Mn  Mn8  1  0.755101  0.843655  0.741674  1
  Mn  Mn9  1  0.749836  0.842188  0.239766  1
  Mn  Mn10  1  0.245345  0.844012  0.741055  1
  Mn  Mn11  1  0.250069  0.842085  0.239877  1
  Mn  Mn12  1  0.499876  0.999912  0.999904  1
  Mn  Mn13  1  0.501494  0.001129  0.500923  1
  Mn  Mn14  1  0.000040  0.001065  0.002202  1
  Mn  Mn15  1  0.998598  0.000500  0.499849  1
  Mn  Mn16  1  0.499982  0.654593  0.761416  1
  Mn  Mn17  1  0.500151  0.657852  0.257297  1
  Mn  Mn18  1  0.000476  0.659208  0.759994  1
  Mn  Mn19  1  -0.000096  0.658664  0.261813  1
  Mn  Mn20  1  0.500053  0.342156  0.739740  1
  Mn  Mn21  1  0.504874  0.344339  0.241443  1
  Mn  Mn22  1  0.000028  0.342248  0.739626  1
  Mn  Mn23  1  0.994819  0.344020  0.242174  1
  H  H24  1  0.249935  0.266424  0.027601  1
  H  H25  1  0.500095  0.765785  0.526877  1
  O  O26  1  0.751730  0.938630  0.594758  1
  O  O27  1  0.749147  0.938007  0.094389  1
  O  O28  1  0.249061  0.939271  0.594583  1
  O  O29  1  0.250760  0.938425  0.094796  1
  O  O30  1  0.749708  0.062289  0.906729  1
  O  O31  1  0.749203  0.061939  0.405164  1
  O  O32  1  0.250187  0.062441  0.905839  1
  O  O33  1  0.250055  0.062205  0.405832  1
  O  O34  1  0.000322  0.438240  0.594671  1
  O  O35  1  0.998223  0.438746  0.094925  1
  O  O36  1  0.499591  0.438609  0.595076  1
  O  O37  1  0.501060  0.439309  0.094702  1
  O  O38  1  0.499847  0.562139  0.905555  1
  O  O39  1  0.500095  0.562173  0.405466  1
  O  O40  1  0.000840  0.561870  0.905091  1
  O  O41  1  -0.000144  0.562006  0.406326  1
  O  O42  1  0.000400  0.899199  0.847795  1
  O  O43  1  0.999915  0.898736  0.346735  1
  O  O44  1  0.500072  0.898506  0.844923  1
  O  O45  1  0.500046  0.896437  0.350460  1
  O  O46  1  0.998155  0.102382  0.652891  1
  O  O47  1  0.000105  0.102043  0.155542  1
  O  O48  1  0.501873  0.102227  0.653640  1
  O  O49  1  0.499463  0.101334  0.153629  1
  O  O50  1  0.750070  0.398755  0.846657  1
  O  O51  1  0.749639  0.399257  0.348407  1
  O  O52  1  0.249917  0.396429  0.850219  1
  O  O53  1  0.249914  0.398498  0.345395  1
  O  O54  1  0.749894  0.601728  0.655076  1
  O  O55  1  0.751865  0.602345  0.153119  1
  O  O56  1  0.250457  0.601223  0.653093  1
  O  O57  1  0.248156  0.602131  0.154123  1
  O  O58  1  0.000070  0.774014  0.643779  1
  O  O59  1  0.000164  0.772774  0.145151  1
  O  O60  1  0.499835  0.772423  0.634824  1
  O  O61  1  0.499947  0.773123  0.143083  1
  O  O62  1  0.004137  0.227871  0.857294  1
  O  O63  1  0.002028  0.227981  0.354761  1
  O  O64  1  0.495679  0.227986  0.857302  1
  O  O65  1  0.497988  0.228477  0.354154  1
  O  O66  1  0.749878  0.272657  0.645067  1
  O  O67  1  0.750205  0.274445  0.144169  1
  O  O68  1  0.250050  0.273138  0.643020  1
  O  O69  1  0.250167  0.273092  0.135518  1
  O  O70  1  0.747867  0.727432  0.854064  1
  O  O71  1  0.745781  0.727991  0.357420  1
  O  O72  1  0.252145  0.727880  0.853787  1
  O  O73  1  0.254305  0.728020  0.357434  1
