# generated using pymatgen
data_Te8Mo3W
_symmetry_space_group_name_H-M   'P 1'
_cell_length_a   3.55945924
_cell_length_b   3.55919998
_cell_length_c   40.10720013
_cell_angle_alpha   90.00012802
_cell_angle_beta   90.00000000
_cell_angle_gamma   120.00240958
_symmetry_Int_Tables_number   1
_chemical_formula_structural   Te8Mo3W
_chemical_formula_sum   'Te8 Mo3 W1'
_cell_volume   440.02651450
_cell_formula_units_Z   1
loop_
 _symmetry_equiv_pos_site_id
 _symmetry_equiv_pos_as_xyz
  1  'x, y, z'
loop_
 _atom_site_type_symbol
 _atom_site_label
 _atom_site_symmetry_multiplicity
 _atom_site_fract_x
 _atom_site_fract_y
 _atom_site_fract_z
 _atom_site_occupancy
  Te  Te0  1  0.333354  0.666709  0.327013  1
  Te  Te1  1  0.333349  0.666699  0.702711  1
  Te  Te2  1  0.666643  0.333286  0.048732  1
  Te  Te3  1  0.666651  0.333301  0.424310  1
  Te  Te4  1  0.666653  0.333305  0.139139  1
  Te  Te5  1  0.666652  0.333302  0.515002  1
  Te  Te6  1  0.333348  0.666696  0.236591  1
  Te  Te7  1  0.333348  0.666697  0.612325  1
  Mo  Mo8  1  0.333299  0.666598  0.093912  1
  Mo  Mo9  1  0.666701  0.333403  0.281802  1
  Mo  Mo10  1  0.666703  0.333406  0.657544  1
  W  W11  1  0.333300  0.666600  0.469667  1
