# generated using pymatgen
data_Ti6Ga16Pt7
_symmetry_space_group_name_H-M   'P 1'
_cell_length_a   8.73347191
_cell_length_b   8.73347191
_cell_length_c   8.73347191
_cell_angle_alpha   60.00000000
_cell_angle_beta   60.00000000
_cell_angle_gamma   60.00000000
_symmetry_Int_Tables_number   1
_chemical_formula_structural   Ti6Ga16Pt7
_chemical_formula_sum   'Ti6 Ga16 Pt7'
_cell_volume   471.02698148
_cell_formula_units_Z   1
loop_
 _symmetry_equiv_pos_site_id
 _symmetry_equiv_pos_as_xyz
  1  'x, y, z'
loop_
 _atom_site_type_symbol
 _atom_site_label
 _atom_site_symmetry_multiplicity
 _atom_site_fract_x
 _atom_site_fract_y
 _atom_site_fract_z
 _atom_site_occupancy
  Ti  Ti0  1  0.678808  0.321192  0.321192  1
  Ti  Ti1  1  0.678808  0.321192  0.678808  1
  Ti  Ti2  1  0.678808  0.678808  0.321192  1
  Ti  Ti3  1  0.321192  0.678808  0.678808  1
  Ti  Ti4  1  0.321192  0.678808  0.321192  1
  Ti  Ti5  1  0.321192  0.321192  0.678808  1
  Ga  Ga6  1  0.635576  0.121475  0.121475  1
  Ga  Ga7  1  0.121475  0.635576  0.121475  1
  Ga  Ga8  1  0.121475  0.121475  0.635576  1
  Ga  Ga9  1  0.121475  0.121475  0.121475  1
  Ga  Ga10  1  0.364424  0.878525  0.878525  1
  Ga  Ga11  1  0.878525  0.364424  0.878525  1
  Ga  Ga12  1  0.878525  0.878525  0.364424  1
  Ga  Ga13  1  0.878525  0.878525  0.878525  1
  Ga  Ga14  1  0.962565  0.345812  0.345812  1
  Ga  Ga15  1  0.345812  0.962565  0.345812  1
  Ga  Ga16  1  0.345812  0.345812  0.962565  1
  Ga  Ga17  1  0.345812  0.345812  0.345812  1
  Ga  Ga18  1  0.037435  0.654188  0.654188  1
  Ga  Ga19  1  0.654188  0.037435  0.654188  1
  Ga  Ga20  1  0.654188  0.654188  0.037435  1
  Ga  Ga21  1  0.654188  0.654188  0.654188  1
  Pt  Pt22  1  0.000000  0.000000  -0.000000  1
  Pt  Pt23  1  0.500000  0.000000  -0.000000  1
  Pt  Pt24  1  0.500000  0.000000  0.500000  1
  Pt  Pt25  1  0.500000  0.500000  -0.000000  1
  Pt  Pt26  1  0.000000  0.500000  0.500000  1
  Pt  Pt27  1  0.000000  0.500000  -0.000000  1
  Pt  Pt28  1  0.000000  0.000000  0.500000  1
