# generated using pymatgen
data_MoWS4
_symmetry_space_group_name_H-M   'P 1'
_cell_length_a   3.18845616
_cell_length_b   3.18836425
_cell_length_c   22.37003227
_cell_angle_alpha   89.99999310
_cell_angle_beta   90.00000000
_cell_angle_gamma   120.00095362
_symmetry_Int_Tables_number   1
_chemical_formula_structural   MoWS4
_chemical_formula_sum   'Mo1 W1 S4'
_cell_volume   196.94340819
_cell_formula_units_Z   1
loop_
 _symmetry_equiv_pos_site_id
 _symmetry_equiv_pos_as_xyz
  1  'x, y, z'
loop_
 _atom_site_type_symbol
 _atom_site_label
 _atom_site_symmetry_multiplicity
 _atom_site_fract_x
 _atom_site_fract_y
 _atom_site_fract_z
 _atom_site_occupancy
  Mo  Mo0  1  0.333312  0.666624  0.150445  1
  W  W1  1  0.666687  0.333374  0.451418  1
  S  S2  1  0.333356  0.666713  0.521772  1
  S  S3  1  0.666645  0.333289  0.080401  1
  S  S4  1  0.666646  0.333290  0.220481  1
  S  S5  1  0.333354  0.666709  0.381087  1
