# generated using pymatgen
data_Ca(MoO3)2
_symmetry_space_group_name_H-M   'P 1'
_cell_length_a   5.46091253
_cell_length_b   5.56576744
_cell_length_c   7.75991355
_cell_angle_alpha   90.00042910
_cell_angle_beta   89.57670832
_cell_angle_gamma   90.00075469
_symmetry_Int_Tables_number   1
_chemical_formula_structural   Ca(MoO3)2
_chemical_formula_sum   'Ca2 Mo4 O12'
_cell_volume   235.84968820
_cell_formula_units_Z   2
loop_
 _symmetry_equiv_pos_site_id
 _symmetry_equiv_pos_as_xyz
  1  'x, y, z'
loop_
 _atom_site_type_symbol
 _atom_site_label
 _atom_site_symmetry_multiplicity
 _atom_site_fract_x
 _atom_site_fract_y
 _atom_site_fract_z
 _atom_site_occupancy
  Ca  Ca0  1  0.511202  0.548951  0.248081  1
  Ca  Ca1  1  0.013867  0.952572  0.747857  1
  Mo  Mo2  1  0.496738  0.009367  0.001756  1
  Mo  Mo3  1  0.999804  0.497616  0.000924  1
  Mo  Mo4  1  0.002613  0.491808  0.500750  1
  Mo  Mo5  1  0.505845  0.003622  0.502217  1
  O  O6  1  0.697458  0.286718  0.457412  1
  O  O7  1  0.204148  0.202813  0.543837  1
  O  O8  1  0.789416  0.772479  0.030798  1
  O  O9  1  0.281744  0.718852  0.967495  1
  O  O10  1  0.293256  0.726807  0.530325  1
  O  O11  1  0.786090  0.781244  0.467630  1
  O  O12  1  0.194948  0.212902  0.958484  1
  O  O13  1  0.699715  0.298201  0.042932  1
  O  O14  1  0.079117  0.481622  0.255292  1
  O  O15  1  0.581706  0.016407  0.756519  1
  O  O16  1  0.442165  0.982358  0.243967  1
  O  O17  1  0.942346  0.515721  0.743617  1
