# generated using pymatgen
data_Ti2ZnO4
_symmetry_space_group_name_H-M   'P 1'
_cell_length_a   6.01929168
_cell_length_b   6.01621772
_cell_length_c   18.20597041
_cell_angle_alpha   60.26889908
_cell_angle_beta   60.26446954
_cell_angle_gamma   60.00051960
_symmetry_Int_Tables_number   1
_chemical_formula_structural   Ti2ZnO4
_chemical_formula_sum   'Ti12 Zn6 O24'
_cell_volume   468.06739080
_cell_formula_units_Z   6
loop_
 _symmetry_equiv_pos_site_id
 _symmetry_equiv_pos_as_xyz
  1  'x, y, z'
loop_
 _atom_site_type_symbol
 _atom_site_label
 _atom_site_symmetry_multiplicity
 _atom_site_fract_x
 _atom_site_fract_y
 _atom_site_fract_z
 _atom_site_occupancy
  Ti  Ti0  1  0.985832  0.506152  0.167309  1
  Ti  Ti1  1  0.506408  0.506407  0.167194  1
  Ti  Ti2  1  0.001389  0.500047  0.499505  1
  Ti  Ti3  1  0.506271  0.985762  0.167259  1
  Ti  Ti4  1  0.493341  0.493368  0.339861  1
  Ti  Ti5  1  0.500006  0.499877  0.499830  1
  Ti  Ti6  1  0.032851  0.490409  0.828673  1
  Ti  Ti7  1  0.500047  0.000606  0.499822  1
  Ti  Ti8  1  0.490371  0.033235  0.828689  1
  Ti  Ti9  1  0.495245  0.495448  0.671374  1
  Ti  Ti10  1  0.490636  0.490250  0.828556  1
  Ti  Ti11  1  0.883774  0.883429  0.949808  1
  Zn  Zn12  1  0.117104  0.117707  0.049114  1
  Zn  Zn13  1  0.130184  0.130611  0.369512  1
  Zn  Zn14  1  0.498267  0.498436  0.001539  1
  Zn  Zn15  1  0.131834  0.132311  0.701332  1
  Zn  Zn16  1  0.874176  0.873752  0.292642  1
  Zn  Zn17  1  0.869207  0.869211  0.630895  1
  O  O18  1  0.250178  0.250129  0.094381  1
  O  O19  1  0.261546  0.261496  0.238501  1
  O  O20  1  0.250608  0.716472  0.094223  1
  O  O21  1  0.716214  0.250770  0.094186  1
  O  O22  1  0.275803  0.735217  0.251176  1
  O  O23  1  0.256224  0.254943  0.420318  1
  O  O24  1  0.735620  0.275616  0.250980  1
  O  O25  1  0.755433  0.755161  0.078445  1
  O  O26  1  0.256284  0.727804  0.420321  1
  O  O27  1  0.261061  0.262044  0.571633  1
  O  O28  1  0.735562  0.735533  0.250970  1
  O  O29  1  0.727535  0.256086  0.420127  1
  O  O30  1  0.279195  0.740923  0.579679  1
  O  O31  1  0.257556  0.257699  0.748188  1
  O  O32  1  0.740680  0.279644  0.579485  1
  O  O33  1  0.740725  0.739661  0.426583  1
  O  O34  1  0.250517  0.251158  0.915804  1
  O  O35  1  0.257121  0.740412  0.748236  1
  O  O36  1  0.740774  0.741333  0.579524  1
  O  O37  1  0.740346  0.257448  0.748084  1
  O  O38  1  0.265872  0.750523  0.910980  1
  O  O39  1  0.736513  0.736392  0.763466  1
  O  O40  1  0.750726  0.265679  0.910961  1
  O  O41  1  0.750964  0.750836  0.910836  1
