# generated using pymatgen
data_MnZnSe2
_symmetry_space_group_name_H-M   'P 1'
_cell_length_a   4.12468224
_cell_length_b   4.12468224
_cell_length_c   6.73704674
_cell_angle_alpha   90.00066719
_cell_angle_beta   89.99933281
_cell_angle_gamma   119.99495092
_symmetry_Int_Tables_number   1
_chemical_formula_structural   MnZnSe2
_chemical_formula_sum   'Mn1 Zn1 Se2'
_cell_volume   99.26663028
_cell_formula_units_Z   1
loop_
 _symmetry_equiv_pos_site_id
 _symmetry_equiv_pos_as_xyz
  1  'x, y, z'
loop_
 _atom_site_type_symbol
 _atom_site_label
 _atom_site_symmetry_multiplicity
 _atom_site_fract_x
 _atom_site_fract_y
 _atom_site_fract_z
 _atom_site_occupancy
  Mn  Mn0  1  0.333326  0.666674  0.498725  1
  Zn  Zn1  1  0.666673  0.333327  0.999152  1
  Se  Se2  1  0.333327  0.666673  0.120009  1
  Se  Se3  1  0.666674  0.333326  0.630114  1
