# generated using pymatgen
data_TeMoS
_symmetry_space_group_name_H-M   'P 1'
_cell_length_a   3.36554934
_cell_length_b   3.36551966
_cell_length_c   38.22693625
_cell_angle_alpha   90.00039596
_cell_angle_beta   90.00000000
_cell_angle_gamma   120.00029168
_symmetry_Int_Tables_number   1
_chemical_formula_structural   TeMoS
_chemical_formula_sum   'Te4 Mo4 S4'
_cell_volume   374.97899591
_cell_formula_units_Z   4
loop_
 _symmetry_equiv_pos_site_id
 _symmetry_equiv_pos_as_xyz
  1  'x, y, z'
loop_
 _atom_site_type_symbol
 _atom_site_label
 _atom_site_symmetry_multiplicity
 _atom_site_fract_x
 _atom_site_fract_y
 _atom_site_fract_z
 _atom_site_occupancy
  Te  Te0  1  0.333363  0.666727  0.331227  1
  Te  Te1  1  0.333354  0.666709  0.706922  1
  Te  Te2  1  0.333354  0.666708  0.232360  1
  Te  Te3  1  0.333353  0.666707  0.608139  1
  Mo  Mo4  1  0.333314  0.666628  0.093924  1
  Mo  Mo5  1  0.333310  0.666620  0.469662  1
  Mo  Mo6  1  0.666689  0.333379  0.281820  1
  Mo  Mo7  1  0.666688  0.333376  0.657543  1
  S  S8  1  0.666643  0.333286  0.054341  1
  S  S9  1  0.666644  0.333287  0.430168  1
  S  S10  1  0.666641  0.333281  0.133509  1
  S  S11  1  0.666647  0.333293  0.509132  1
