# generated using pymatgen
data_BaSrPb6
_symmetry_space_group_name_H-M   'P 1'
_cell_length_a   7.26359704
_cell_length_b   7.26367547
_cell_length_c   17.54980370
_cell_angle_alpha   90.00000000
_cell_angle_beta   89.99998613
_cell_angle_gamma   59.99963823
_symmetry_Int_Tables_number   1
_chemical_formula_structural   BaSrPb6
_chemical_formula_sum   'Ba3 Sr3 Pb18'
_cell_volume   801.88019452
_cell_formula_units_Z   3
loop_
 _symmetry_equiv_pos_site_id
 _symmetry_equiv_pos_as_xyz
  1  'x, y, z'
loop_
 _atom_site_type_symbol
 _atom_site_label
 _atom_site_symmetry_multiplicity
 _atom_site_fract_x
 _atom_site_fract_y
 _atom_site_fract_z
 _atom_site_occupancy
  Ba  Ba0  1  0.000073  0.999963  0.750060  1
  Ba  Ba1  1  0.000142  0.999929  0.249969  1
  Ba  Ba2  1  0.333371  0.333315  0.588843  1
  Sr  Sr3  1  0.666690  0.666655  0.411501  1
  Sr  Sr4  1  0.666554  0.666723  0.088511  1
  Sr  Sr5  1  0.333417  0.333292  0.911212  1
  Pb  Pb6  1  0.832652  0.334578  0.580361  1
  Pb  Pb7  1  0.334103  0.832949  0.580094  1
  Pb  Pb8  1  0.832652  0.832771  0.580361  1
  Pb  Pb9  1  0.166119  0.667891  0.419186  1
  Pb  Pb10  1  0.666981  0.166509  0.418920  1
  Pb  Pb11  1  0.166119  0.165990  0.419186  1
  Pb  Pb12  1  0.166822  0.665799  0.080188  1
  Pb  Pb13  1  0.665991  0.167005  0.080154  1
  Pb  Pb14  1  0.166822  0.167380  0.080188  1
  Pb  Pb15  1  0.833022  0.334410  0.919644  1
  Pb  Pb16  1  0.334873  0.832564  0.919768  1
  Pb  Pb17  1  0.833022  0.832568  0.919644  1
  Pb  Pb18  1  0.517279  0.965409  0.750892  1
  Pb  Pb19  1  0.965085  0.517457  0.750888  1
  Pb  Pb20  1  0.517279  0.517312  0.750892  1
  Pb  Pb21  1  0.483755  0.032666  0.249877  1
  Pb  Pb22  1  0.033423  0.483288  0.249783  1
  Pb  Pb23  1  0.483755  0.483579  0.249877  1
