# generated using pymatgen
data_Ca3Mn4O8
_symmetry_space_group_name_H-M   'P 1'
_cell_length_a   6.09520940
_cell_length_b   11.27571607
_cell_length_c   11.72691247
_cell_angle_alpha   89.04061221
_cell_angle_beta   90.01154015
_cell_angle_gamma   90.00287563
_symmetry_Int_Tables_number   1
_chemical_formula_structural   Ca3Mn4O8
_chemical_formula_sum   'Ca12 Mn16 O32'
_cell_volume   805.85248618
_cell_formula_units_Z   4
loop_
 _symmetry_equiv_pos_site_id
 _symmetry_equiv_pos_as_xyz
  1  'x, y, z'
loop_
 _atom_site_type_symbol
 _atom_site_label
 _atom_site_symmetry_multiplicity
 _atom_site_fract_x
 _atom_site_fract_y
 _atom_site_fract_z
 _atom_site_occupancy
  Ca  Ca0  1  0.249487  0.982494  0.762622  1
  Ca  Ca1  1  0.260794  0.491055  0.761311  1
  Ca  Ca2  1  0.250508  0.982297  0.262989  1
  Ca  Ca3  1  0.239319  0.490992  0.261229  1
  Ca  Ca4  1  0.759901  0.994466  0.762622  1
  Ca  Ca5  1  0.745563  0.479053  0.761960  1
  Ca  Ca6  1  0.740111  0.994407  0.262344  1
  Ca  Ca7  1  0.754538  0.479005  0.262057  1
  Ca  Ca8  1  0.993918  0.759098  0.482041  1
  Ca  Ca9  1  0.012433  0.261569  0.983715  1
  Ca  Ca10  1  0.487107  0.261483  0.483679  1
  Ca  Ca11  1  0.506048  0.759260  0.982030  1
  Mn  Mn12  1  0.259918  0.233167  0.731071  1
  Mn  Mn13  1  0.265484  0.731049  0.707312  1
  Mn  Mn14  1  0.240120  0.233015  0.231045  1
  Mn  Mn15  1  0.234369  0.730996  0.207196  1
  Mn  Mn16  1  0.769138  0.232211  0.705248  1
  Mn  Mn17  1  0.763647  0.732408  0.731473  1
  Mn  Mn18  1  0.730926  0.232190  0.205469  1
  Mn  Mn19  1  0.736312  0.732351  0.231465  1
  Mn  Mn20  1  0.491377  0.037652  0.997339  1
  Mn  Mn21  1  0.496303  0.484860  0.024292  1
  Mn  Mn22  1  0.509234  0.970511  0.528956  1
  Mn  Mn23  1  0.509133  0.552205  0.486940  1
  Mn  Mn24  1  0.991251  0.970692  0.028971  1
  Mn  Mn25  1  0.990747  0.552309  0.986893  1
  Mn  Mn26  1  0.008607  0.037535  0.497383  1
  Mn  Mn27  1  0.003670  0.484774  0.524353  1
  O  O28  1  0.025038  0.359083  0.690044  1
  O  O29  1  0.994132  0.844354  0.686599  1
  O  O30  1  0.009151  0.342558  0.182058  1
  O  O31  1  0.970874  0.855054  0.183779  1
  O  O32  1  0.490888  0.342640  0.682006  1
  O  O33  1  0.529157  0.855085  0.683849  1
  O  O34  1  0.475006  0.358979  0.190145  1
  O  O35  1  0.505729  0.844284  0.186603  1
  O  O36  1  0.252585  0.417977  0.939907  1
  O  O37  1  0.273308  0.918976  0.946101  1
  O  O38  1  0.247285  0.417997  0.439871  1
  O  O39  1  0.226830  0.918833  0.446437  1
  O  O40  1  0.747579  0.415422  0.946802  1
  O  O41  1  0.713620  0.923159  0.938805  1
  O  O42  1  0.752303  0.415308  0.446873  1
  O  O43  1  0.786564  0.923042  0.438565  1
  O  O44  1  0.487649  0.131021  0.803829  1
  O  O45  1  0.519972  0.645133  0.805315  1
  O  O46  1  0.478795  0.145165  0.308515  1
  O  O47  1  0.513480  0.631928  0.313239  1
  O  O48  1  0.021212  0.145323  0.808481  1
  O  O49  1  0.986640  0.632011  0.813225  1
  O  O50  1  0.012437  0.130902  0.303880  1
  O  O51  1  0.980113  0.645090  0.305265  1
  O  O52  1  0.250303  0.110015  0.584471  1
  O  O53  1  0.229158  0.605910  0.578897  1
  O  O54  1  0.249505  0.109854  0.084512  1
  O  O55  1  0.270847  0.605940  0.078808  1
  O  O56  1  0.755645  0.108538  0.577070  1
  O  O57  1  0.782923  0.604283  0.587565  1
  O  O58  1  0.744256  0.108765  0.077056  1
  O  O59  1  0.717052  0.604304  0.087570  1
