# generated using pymatgen
data_Na3SbI6
_symmetry_space_group_name_H-M   'P 1'
_cell_length_a   8.63770179
_cell_length_b   8.63770229
_cell_length_c   8.63770226
_cell_angle_alpha   59.99999855
_cell_angle_beta   59.99999778
_cell_angle_gamma   59.99999790
_symmetry_Int_Tables_number   1
_chemical_formula_structural   Na3SbI6
_chemical_formula_sum   'Na3 Sb1 I6'
_cell_volume   455.70065311
_cell_formula_units_Z   1
loop_
 _symmetry_equiv_pos_site_id
 _symmetry_equiv_pos_as_xyz
  1  'x, y, z'
loop_
 _atom_site_type_symbol
 _atom_site_label
 _atom_site_symmetry_multiplicity
 _atom_site_fract_x
 _atom_site_fract_y
 _atom_site_fract_z
 _atom_site_occupancy
  Na  Na0  1  0.250000  0.250000  0.250000  1
  Na  Na1  1  0.750000  0.750000  0.750000  1
  Na  Na2  1  0.500000  0.500000  0.500000  1
  Sb  Sb3  1  0.000000  0.000000  -0.000000  1
  I  I4  1  0.246271  0.753729  0.246271  1
  I  I5  1  0.753729  0.753729  0.246271  1
  I  I6  1  0.753729  0.246271  0.753729  1
  I  I7  1  0.753729  0.246271  0.246271  1
  I  I8  1  0.246271  0.753729  0.753729  1
  I  I9  1  0.246271  0.246271  0.753729  1
