# generated using pymatgen
data_WSeS
_symmetry_space_group_name_H-M   'P 1'
_cell_length_a   3.25369629
_cell_length_b   3.25368627
_cell_length_c   36.85244539
_cell_angle_alpha   89.99999970
_cell_angle_beta   90.00000000
_cell_angle_gamma   120.00010198
_symmetry_Int_Tables_number   1
_chemical_formula_structural   WSeS
_chemical_formula_sum   'W4 Se4 S4'
_cell_volume   337.86965120
_cell_formula_units_Z   4
loop_
 _symmetry_equiv_pos_site_id
 _symmetry_equiv_pos_as_xyz
  1  'x, y, z'
loop_
 _atom_site_type_symbol
 _atom_site_label
 _atom_site_symmetry_multiplicity
 _atom_site_fract_x
 _atom_site_fract_y
 _atom_site_fract_z
 _atom_site_occupancy
  W  W0  1  0.333311  0.666622  0.093917  1
  W  W1  1  0.333313  0.666626  0.469658  1
  W  W2  1  0.666686  0.333373  0.281799  1
  W  W3  1  0.666689  0.333379  0.657548  1
  Se  Se4  1  0.333353  0.666707  0.328141  1
  Se  Se5  1  0.333354  0.666709  0.703931  1
  Se  Se6  1  0.333351  0.666703  0.235433  1
  Se  Se7  1  0.333358  0.666717  0.611179  1
  S  S8  1  0.666645  0.333289  0.051827  1
  S  S9  1  0.666647  0.333293  0.427584  1
  S  S10  1  0.666646  0.333290  0.136004  1
  S  S11  1  0.666647  0.333293  0.511728  1
