# generated using pymatgen
data_CaTi2O4
_symmetry_space_group_name_H-M   'P 1'
_cell_length_a   6.26237854
_cell_length_b   6.26175403
_cell_length_c   18.98745230
_cell_angle_alpha   60.19341768
_cell_angle_beta   60.19074460
_cell_angle_gamma   59.84220998
_symmetry_Int_Tables_number   1
_chemical_formula_structural   CaTi2O4
_chemical_formula_sum   'Ca6 Ti12 O24'
_cell_volume   527.37346763
_cell_formula_units_Z   6
loop_
 _symmetry_equiv_pos_site_id
 _symmetry_equiv_pos_as_xyz
  1  'x, y, z'
loop_
 _atom_site_type_symbol
 _atom_site_label
 _atom_site_symmetry_multiplicity
 _atom_site_fract_x
 _atom_site_fract_y
 _atom_site_fract_z
 _atom_site_occupancy
  Ca  Ca0  1  0.124346  0.123994  0.042678  1
  Ca  Ca1  1  0.126753  0.126504  0.373886  1
  Ca  Ca2  1  0.498584  0.498311  0.001571  1
  Ca  Ca3  1  0.125386  0.125045  0.708317  1
  Ca  Ca4  1  0.877682  0.878139  0.288798  1
  Ca  Ca5  1  0.872442  0.872736  0.627544  1
  Ti  Ti6  1  0.986257  0.504072  0.168591  1
  Ti  Ti7  1  0.504225  0.504269  0.168418  1
  Ti  Ti8  1  0.997701  0.500766  0.500210  1
  Ti  Ti9  1  0.504162  0.986208  0.168535  1
  Ti  Ti10  1  0.492358  0.492855  0.340605  1
  Ti  Ti11  1  0.500320  0.500140  0.499962  1
  Ti  Ti12  1  0.018004  0.498219  0.828521  1
  Ti  Ti13  1  0.500774  0.997685  0.500268  1
  Ti  Ti14  1  0.498182  0.018084  0.828539  1
  Ti  Ti15  1  0.507370  0.507310  0.659739  1
  Ti  Ti16  1  0.498241  0.498198  0.828563  1
  Ti  Ti17  1  0.881887  0.882176  0.951167  1
  O  O18  1  0.243343  0.243175  0.104486  1
  O  O19  1  0.265423  0.265342  0.234488  1
  O  O20  1  0.243136  0.700174  0.104465  1
  O  O21  1  0.700091  0.243001  0.104528  1
  O  O22  1  0.303704  0.724135  0.249261  1
  O  O23  1  0.265122  0.264453  0.423678  1
  O  O24  1  0.724010  0.303824  0.249309  1
  O  O25  1  0.753400  0.753511  0.079881  1
  O  O26  1  0.264191  0.700314  0.423545  1
  O  O27  1  0.267423  0.267230  0.565958  1
  O  O28  1  0.724099  0.724071  0.249440  1
  O  O29  1  0.700166  0.263973  0.423501  1
  O  O30  1  0.298482  0.735420  0.576819  1
  O  O31  1  0.273317  0.273079  0.750656  1
  O  O32  1  0.735023  0.298485  0.576846  1
  O  O33  1  0.733532  0.733801  0.432611  1
  O  O34  1  0.266033  0.266157  0.900541  1
  O  O35  1  0.273156  0.701542  0.750702  1
  O  O36  1  0.735762  0.736400  0.576909  1
  O  O37  1  0.701613  0.273047  0.750671  1
  O  O38  1  0.253224  0.765169  0.905438  1
  O  O39  1  0.730551  0.730603  0.769431  1
  O  O40  1  0.765238  0.252948  0.905447  1
  O  O41  1  0.765286  0.765436  0.905470  1
