# generated using pymatgen
data_Zn(CuO2)2
_symmetry_space_group_name_H-M   'P 1'
_cell_length_a   5.94798170
_cell_length_b   5.94748767
_cell_length_c   17.81412392
_cell_angle_alpha   59.95164055
_cell_angle_beta   59.95286557
_cell_angle_gamma   59.98902300
_symmetry_Int_Tables_number   1
_chemical_formula_structural   Zn(CuO2)2
_chemical_formula_sum   'Zn6 Cu12 O24'
_cell_volume   445.24889464
_cell_formula_units_Z   6
loop_
 _symmetry_equiv_pos_site_id
 _symmetry_equiv_pos_as_xyz
  1  'x, y, z'
loop_
 _atom_site_type_symbol
 _atom_site_label
 _atom_site_symmetry_multiplicity
 _atom_site_fract_x
 _atom_site_fract_y
 _atom_site_fract_z
 _atom_site_occupancy
  Zn  Zn0  1  0.121613  0.121706  0.045046  1
  Zn  Zn1  1  0.123934  0.124085  0.375999  1
  Zn  Zn2  1  0.500124  0.500001  0.999839  1
  Zn  Zn3  1  0.123346  0.123273  0.710007  1
  Zn  Zn4  1  0.877515  0.877345  0.289269  1
  Zn  Zn5  1  0.874794  0.874831  0.625194  1
  Cu  Cu6  1  0.000027  0.500047  0.166661  1
  Cu  Cu7  1  0.500054  0.500042  0.166606  1
  Cu  Cu8  1  0.999815  0.500102  0.500010  1
  Cu  Cu9  1  0.500082  0.000020  0.166640  1
  Cu  Cu10  1  0.498446  0.498381  0.334849  1
  Cu  Cu11  1  0.500054  0.500103  0.499984  1
  Cu  Cu12  1  0.000133  0.499493  0.833621  1
  Cu  Cu13  1  0.500072  0.999805  0.500021  1
  Cu  Cu14  1  0.499493  0.000151  0.833607  1
  Cu  Cu15  1  0.500828  0.500841  0.665879  1
  Cu  Cu16  1  0.499607  0.499626  0.833557  1
  Cu  Cu17  1  0.876737  0.876633  0.956588  1
  O  O18  1  0.253114  0.253591  0.092498  1
  O  O19  1  0.259123  0.259229  0.241034  1
  O  O20  1  0.252942  0.715768  0.092669  1
  O  O21  1  0.715783  0.253291  0.092598  1
  O  O22  1  0.289999  0.737966  0.244634  1
  O  O23  1  0.261001  0.261005  0.420291  1
  O  O24  1  0.738334  0.289934  0.244573  1
  O  O25  1  0.744718  0.744490  0.088466  1
  O  O26  1  0.261354  0.717250  0.420094  1
  O  O27  1  0.260201  0.260292  0.572825  1
  O  O28  1  0.738477  0.737992  0.244644  1
  O  O29  1  0.717177  0.261382  0.420104  1
  O  O30  1  0.282589  0.739088  0.579645  1
  O  O31  1  0.261844  0.261282  0.754378  1
  O  O32  1  0.739137  0.282630  0.579609  1
  O  O33  1  0.740679  0.740654  0.426240  1
  O  O34  1  0.259066  0.258705  0.908001  1
  O  O35  1  0.261415  0.713933  0.754226  1
  O  O36  1  0.739453  0.739418  0.579509  1
  O  O37  1  0.713804  0.261095  0.754292  1
  O  O38  1  0.277639  0.749538  0.908200  1
  O  O39  1  0.737958  0.738356  0.761635  1
  O  O40  1  0.749127  0.277531  0.908274  1
  O  O41  1  0.748391  0.749098  0.908182  1
