# generated using pymatgen
data_Te3Mo2Se
_symmetry_space_group_name_H-M   'P 1'
_cell_length_a   3.49950139
_cell_length_b   3.49951712
_cell_length_c   15.09505768
_cell_angle_alpha   90.00000000
_cell_angle_beta   90.00101397
_cell_angle_gamma   59.99985128
_symmetry_Int_Tables_number   1
_chemical_formula_structural   Te3Mo2Se
_chemical_formula_sum   'Te3 Mo2 Se1'
_cell_volume   160.09547245
_cell_formula_units_Z   1
loop_
 _symmetry_equiv_pos_site_id
 _symmetry_equiv_pos_as_xyz
  1  'x, y, z'
loop_
 _atom_site_type_symbol
 _atom_site_label
 _atom_site_symmetry_multiplicity
 _atom_site_fract_x
 _atom_site_fract_y
 _atom_site_fract_z
 _atom_site_occupancy
  Te  Te0  1  0.666679  0.666660  0.872749  1
  Te  Te1  1  0.666637  0.666682  0.629771  1
  Te  Te2  1  0.333352  0.333324  0.366065  1
  Mo  Mo3  1  0.333327  0.333336  0.751162  1
  Mo  Mo4  1  0.666672  0.666664  0.243311  1
  Se  Se5  1  0.333332  0.333334  0.136943  1
