# generated using pymatgen
data_DyLuCd2
_symmetry_space_group_name_H-M   'P 1'
_cell_length_a   5.25230201
_cell_length_b   5.25214990
_cell_length_c   5.25272479
_cell_angle_alpha   59.99888462
_cell_angle_beta   59.99595216
_cell_angle_gamma   60.00628900
_symmetry_Int_Tables_number   1
_chemical_formula_structural   DyLuCd2
_chemical_formula_sum   'Dy1 Lu1 Cd2'
_cell_volume   102.46136560
_cell_formula_units_Z   1
loop_
 _symmetry_equiv_pos_site_id
 _symmetry_equiv_pos_as_xyz
  1  'x, y, z'
loop_
 _atom_site_type_symbol
 _atom_site_label
 _atom_site_symmetry_multiplicity
 _atom_site_fract_x
 _atom_site_fract_y
 _atom_site_fract_z
 _atom_site_occupancy
  Dy  Dy0  1  0.250001  0.250002  0.250001  1
  Lu  Lu1  1  0.749999  0.750001  0.749996  1
  Cd  Cd2  1  0.500001  0.499999  0.500003  1
  Cd  Cd3  1  0.000000  1.000000  0.000001  1
