# generated using pymatgen
data_Ho3(Ga2Cu)2
_symmetry_space_group_name_H-M   'P 1'
_cell_length_a   4.31956782
_cell_length_b   4.31956782
_cell_length_c   21.98910227
_cell_angle_alpha   89.99834821
_cell_angle_beta   90.00165179
_cell_angle_gamma   120.02226029
_symmetry_Int_Tables_number   1
_chemical_formula_structural   Ho3(Ga2Cu)2
_chemical_formula_sum   'Ho6 Ga8 Cu4'
_cell_volume   355.23951221
_cell_formula_units_Z   2
loop_
 _symmetry_equiv_pos_site_id
 _symmetry_equiv_pos_as_xyz
  1  'x, y, z'
loop_
 _atom_site_type_symbol
 _atom_site_label
 _atom_site_symmetry_multiplicity
 _atom_site_fract_x
 _atom_site_fract_y
 _atom_site_fract_z
 _atom_site_occupancy
  Ho  Ho0  1  0.999964  0.000036  0.256408  1
  Ho  Ho1  1  0.000030  0.999970  0.589327  1
  Ho  Ho2  1  0.999963  0.000037  0.922016  1
  Ho  Ho3  1  0.000000  -0.000000  0.078589  1
  Ho  Ho4  1  0.999980  0.000020  0.412749  1
  Ho  Ho5  1  0.000018  0.999982  0.745357  1
  Ga  Ga6  1  0.333406  0.666594  0.339625  1
  Ga  Ga7  1  0.333437  0.666563  0.672591  1
  Ga  Ga8  1  0.333360  0.666640  0.154612  1
  Ga  Ga9  1  0.333313  0.666687  0.487439  1
  Ga  Ga10  1  0.333363  0.666637  0.819956  1
  Ga  Ga11  1  0.666611  0.333389  0.180751  1
  Ga  Ga12  1  0.666655  0.333345  0.513231  1
  Ga  Ga13  1  0.666624  0.333376  0.845446  1
  Cu  Cu14  1  0.666647  0.333353  0.324989  1
  Cu  Cu15  1  0.666669  0.333331  0.657266  1
  Cu  Cu16  1  0.666657  0.333343  0.992435  1
  Cu  Cu17  1  0.333302  0.666698  0.007214  1
