# generated using pymatgen
data_Na2(NbSe2)3
_symmetry_space_group_name_H-M   'P 1'
_cell_length_a   3.55843958
_cell_length_b   3.55843958
_cell_length_c   45.44959717
_cell_angle_alpha   90.00024039
_cell_angle_beta   89.99975961
_cell_angle_gamma   120.00065033
_symmetry_Int_Tables_number   1
_chemical_formula_structural   Na2(NbSe2)3
_chemical_formula_sum   'Na4 Nb6 Se12'
_cell_volume   498.39883210
_cell_formula_units_Z   2
loop_
 _symmetry_equiv_pos_site_id
 _symmetry_equiv_pos_as_xyz
  1  'x, y, z'
loop_
 _atom_site_type_symbol
 _atom_site_label
 _atom_site_symmetry_multiplicity
 _atom_site_fract_x
 _atom_site_fract_y
 _atom_site_fract_z
 _atom_site_occupancy
  Na  Na0  1  0.666696  0.333304  0.083209  1
  Na  Na1  1  0.666692  0.333308  0.416808  1
  Na  Na2  1  0.666697  0.333303  0.750008  1
  Na  Na3  1  0.666697  0.333303  0.249989  1
  Nb  Nb4  1  0.666678  0.333322  0.333337  1
  Nb  Nb5  1  0.666678  0.333322  0.666228  1
  Nb  Nb6  1  0.666678  0.333322  0.999605  1
  Nb  Nb7  1  0.333324  0.666676  0.166682  1
  Nb  Nb8  1  0.333324  0.666676  0.500381  1
  Nb  Nb9  1  0.333323  0.666677  0.833786  1
  Se  Se10  1  0.000010  0.999990  0.036444  1
  Se  Se11  1  0.000009  0.999991  0.369782  1
  Se  Se12  1  0.000010  0.999990  0.703124  1
  Se  Se13  1  0.000012  0.999988  0.296863  1
  Se  Se14  1  0.000009  0.999991  0.630360  1
  Se  Se15  1  0.000009  0.999991  0.963674  1
  Se  Se16  1  0.999993  0.000007  0.130223  1
  Se  Se17  1  0.999994  0.000006  0.463511  1
  Se  Se18  1  0.999993  0.000007  0.796881  1
  Se  Se19  1  0.999993  0.000007  0.203173  1
  Se  Se20  1  0.999991  0.000009  0.536292  1
  Se  Se21  1  0.999990  0.000010  0.869641  1
