# generated using pymatgen
data_Nb3AlFe8
_symmetry_space_group_name_H-M   'P 1'
_cell_length_a   4.74045819
_cell_length_b   4.74299208
_cell_length_c   7.89296358
_cell_angle_alpha   90.00000000
_cell_angle_beta   90.02952188
_cell_angle_gamma   59.98232372
_symmetry_Int_Tables_number   1
_chemical_formula_structural   Nb3AlFe8
_chemical_formula_sum   'Nb3 Al1 Fe8'
_cell_volume   153.66182614
_cell_formula_units_Z   1
loop_
 _symmetry_equiv_pos_site_id
 _symmetry_equiv_pos_as_xyz
  1  'x, y, z'
loop_
 _atom_site_type_symbol
 _atom_site_label
 _atom_site_symmetry_multiplicity
 _atom_site_fract_x
 _atom_site_fract_y
 _atom_site_fract_z
 _atom_site_occupancy
  Nb  Nb0  1  0.666724  0.666638  0.440265  1
  Nb  Nb1  1  0.666733  0.666633  0.068389  1
  Nb  Nb2  1  0.333538  0.333231  0.922899  1
  Al  Al3  1  0.333601  0.333200  0.560394  1
  Fe  Fe4  1  0.999846  0.000077  0.502367  1
  Fe  Fe5  1  0.999751  0.000125  0.006772  1
  Fe  Fe6  1  0.831023  0.338045  0.747997  1
  Fe  Fe7  1  0.338011  0.830995  0.748062  1
  Fe  Fe8  1  0.831023  0.830932  0.747997  1
  Fe  Fe9  1  0.169827  0.660235  0.251601  1
  Fe  Fe10  1  0.660097  0.169952  0.251657  1
  Fe  Fe11  1  0.169827  0.169938  0.251601  1
