# generated using pymatgen
data_Te4Mo3Se2
_symmetry_space_group_name_H-M   'P 1'
_cell_length_a   3.47913823
_cell_length_b   3.47913247
_cell_length_c   32.03363970
_cell_angle_alpha   89.99960847
_cell_angle_beta   90.00000000
_cell_angle_gamma   120.00005469
_symmetry_Int_Tables_number   1
_chemical_formula_structural   Te4Mo3Se2
_chemical_formula_sum   'Te4 Mo3 Se2'
_cell_volume   335.79894534
_cell_formula_units_Z   1
loop_
 _symmetry_equiv_pos_site_id
 _symmetry_equiv_pos_as_xyz
  1  'x, y, z'
loop_
 _atom_site_type_symbol
 _atom_site_label
 _atom_site_symmetry_multiplicity
 _atom_site_fract_x
 _atom_site_fract_y
 _atom_site_fract_z
 _atom_site_occupancy
  Te  Te0  1  0.333354  0.666708  0.404394  1
  Te  Te1  1  0.666651  0.333301  0.520894  1
  Te  Te2  1  0.666645  0.333290  0.635769  1
  Te  Te3  1  0.333351  0.666704  0.289488  1
  Mo  Mo4  1  0.333311  0.666623  0.115666  1
  Mo  Mo5  1  0.333310  0.666619  0.578370  1
  Mo  Mo6  1  0.666690  0.333380  0.346975  1
  Se  Se7  1  0.666647  0.333292  0.064946  1
  Se  Se8  1  0.666642  0.333283  0.166339  1
