# generated using pymatgen
data_Te(NCl3)2
_symmetry_space_group_name_H-M   'P 1'
_cell_length_a   7.42664522
_cell_length_b   7.42664522
_cell_length_c   7.42664522
_cell_angle_alpha   60.00000000
_cell_angle_beta   60.00000000
_cell_angle_gamma   60.00000000
_symmetry_Int_Tables_number   1
_chemical_formula_structural   Te(NCl3)2
_chemical_formula_sum   'Te1 N2 Cl6'
_cell_volume   289.64299923
_cell_formula_units_Z   1
loop_
 _symmetry_equiv_pos_site_id
 _symmetry_equiv_pos_as_xyz
  1  'x, y, z'
loop_
 _atom_site_type_symbol
 _atom_site_label
 _atom_site_symmetry_multiplicity
 _atom_site_fract_x
 _atom_site_fract_y
 _atom_site_fract_z
 _atom_site_occupancy
  Te  Te0  1  0.000000  -0.000000  -0.000000  1
  N  N1  1  0.250000  0.250000  0.250000  1
  N  N2  1  0.750000  0.750000  0.750000  1
  Cl  Cl3  1  0.774054  0.225946  0.225946  1
  Cl  Cl4  1  0.774054  0.225946  0.774054  1
  Cl  Cl5  1  0.774054  0.774054  0.225946  1
  Cl  Cl6  1  0.225946  0.774054  0.774054  1
  Cl  Cl7  1  0.225946  0.774054  0.225946  1
  Cl  Cl8  1  0.225946  0.225946  0.774054  1
