# generated using pymatgen
data_Ho3Si11Pt23
_symmetry_space_group_name_H-M   'P 1'
_cell_length_a   12.01570455
_cell_length_b   12.01570455
_cell_length_c   12.01570455
_cell_angle_alpha   60.00000000
_cell_angle_beta   60.00000000
_cell_angle_gamma   60.00000000
_symmetry_Int_Tables_number   1
_chemical_formula_structural   Ho3Si11Pt23
_chemical_formula_sum   'Ho6 Si22 Pt46'
_cell_volume   1226.68407065
_cell_formula_units_Z   2
loop_
 _symmetry_equiv_pos_site_id
 _symmetry_equiv_pos_as_xyz
  1  'x, y, z'
loop_
 _atom_site_type_symbol
 _atom_site_label
 _atom_site_symmetry_multiplicity
 _atom_site_fract_x
 _atom_site_fract_y
 _atom_site_fract_z
 _atom_site_occupancy
  Ho  Ho0  1  0.500000  -0.000000  -0.000000  1
  Ho  Ho1  1  0.500000  -0.000000  0.500000  1
  Ho  Ho2  1  0.500000  0.500000  -0.000000  1
  Ho  Ho3  1  0.000000  0.500000  0.500000  1
  Ho  Ho4  1  0.000000  0.500000  -0.000000  1
  Ho  Ho5  1  0.000000  -0.000000  0.500000  1
  Si  Si6  1  0.827774  0.172226  0.172226  1
  Si  Si7  1  0.827774  0.172226  0.827774  1
  Si  Si8  1  0.827774  0.827774  0.172226  1
  Si  Si9  1  0.172226  0.827774  0.827774  1
  Si  Si10  1  0.172226  0.827774  0.172226  1
  Si  Si11  1  0.172226  0.172226  0.827774  1
  Si  Si12  1  0.504516  0.165161  0.165161  1
  Si  Si13  1  0.165161  0.504516  0.165161  1
  Si  Si14  1  0.165161  0.165161  0.504516  1
  Si  Si15  1  0.165161  0.165161  0.165161  1
  Si  Si16  1  0.495484  0.834839  0.834839  1
  Si  Si17  1  0.834839  0.495484  0.834839  1
  Si  Si18  1  0.834839  0.834839  0.495484  1
  Si  Si19  1  0.834839  0.834839  0.834839  1
  Si  Si20  1  0.819643  0.393452  0.393452  1
  Si  Si21  1  0.393452  0.819643  0.393452  1
  Si  Si22  1  0.393452  0.393452  0.819643  1
  Si  Si23  1  0.393452  0.393452  0.393452  1
  Si  Si24  1  0.180357  0.606548  0.606548  1
  Si  Si25  1  0.606548  0.180357  0.606548  1
  Si  Si26  1  0.606548  0.606548  0.180357  1
  Si  Si27  1  0.606548  0.606548  0.606548  1
  Pt  Pt28  1  0.752109  0.082630  0.082630  1
  Pt  Pt29  1  0.082630  0.752109  0.082630  1
  Pt  Pt30  1  0.082630  0.082630  0.752109  1
  Pt  Pt31  1  0.082630  0.082630  0.082630  1
  Pt  Pt32  1  0.247891  0.917370  0.917370  1
  Pt  Pt33  1  0.917370  0.247891  0.917370  1
  Pt  Pt34  1  0.917370  0.917370  0.247891  1
  Pt  Pt35  1  0.917370  0.917370  0.917370  1
  Pt  Pt36  1  0.075593  0.308136  0.308136  1
  Pt  Pt37  1  0.308136  0.075593  0.308136  1
  Pt  Pt38  1  0.308136  0.308136  0.075593  1
  Pt  Pt39  1  0.308136  0.308136  0.308136  1
  Pt  Pt40  1  0.924407  0.691864  0.691864  1
  Pt  Pt41  1  0.691864  0.924407  0.691864  1
  Pt  Pt42  1  0.691864  0.691864  0.924407  1
  Pt  Pt43  1  0.691864  0.691864  0.691864  1
  Pt  Pt44  1  0.625044  0.374956  0.374956  1
  Pt  Pt45  1  0.625044  0.374956  0.625044  1
  Pt  Pt46  1  0.625044  0.625044  0.374956  1
  Pt  Pt47  1  0.374956  0.625044  0.625044  1
  Pt  Pt48  1  0.374956  0.625044  0.374956  1
  Pt  Pt49  1  0.374956  0.374956  0.625044  1
  Pt  Pt50  1  0.578134  0.917598  0.252134  1
  Pt  Pt51  1  0.578134  0.252134  0.252134  1
  Pt  Pt52  1  0.578134  0.252134  0.917598  1
  Pt  Pt53  1  0.917598  0.578134  0.252134  1
  Pt  Pt54  1  0.252134  0.578134  0.917598  1
  Pt  Pt55  1  0.252134  0.578134  0.252134  1
  Pt  Pt56  1  0.252134  0.252134  0.578134  1
  Pt  Pt57  1  0.252134  0.917598  0.578134  1
  Pt  Pt58  1  0.917598  0.252134  0.578134  1
  Pt  Pt59  1  0.252134  0.252134  0.917598  1
  Pt  Pt60  1  0.917598  0.252134  0.252134  1
  Pt  Pt61  1  0.252134  0.917598  0.252134  1
  Pt  Pt62  1  0.421866  0.082402  0.747866  1
  Pt  Pt63  1  0.421866  0.747866  0.747866  1
  Pt  Pt64  1  0.421866  0.747866  0.082402  1
  Pt  Pt65  1  0.082402  0.421866  0.747866  1
  Pt  Pt66  1  0.747866  0.421866  0.082402  1
  Pt  Pt67  1  0.747866  0.421866  0.747866  1
  Pt  Pt68  1  0.747866  0.747866  0.421866  1
  Pt  Pt69  1  0.747866  0.082402  0.421866  1
  Pt  Pt70  1  0.082402  0.747866  0.421866  1
  Pt  Pt71  1  0.747866  0.747866  0.082402  1
  Pt  Pt72  1  0.082402  0.747866  0.747866  1
  Pt  Pt73  1  0.747866  0.082402  0.747866  1
