# generated using pymatgen
data_HoAgTe2
_symmetry_space_group_name_H-M   'P 1'
_cell_length_a   4.50544911
_cell_length_b   4.50543551
_cell_length_c   7.31668350
_cell_angle_alpha   90.00241757
_cell_angle_beta   90.00000000
_cell_angle_gamma   120.00011177
_symmetry_Int_Tables_number   1
_chemical_formula_structural   HoAgTe2
_chemical_formula_sum   'Ho1 Ag1 Te2'
_cell_volume   128.62319047
_cell_formula_units_Z   1
loop_
 _symmetry_equiv_pos_site_id
 _symmetry_equiv_pos_as_xyz
  1  'x, y, z'
loop_
 _atom_site_type_symbol
 _atom_site_label
 _atom_site_symmetry_multiplicity
 _atom_site_fract_x
 _atom_site_fract_y
 _atom_site_fract_z
 _atom_site_occupancy
  Ho  Ho0  1  -0.000001  -0.000001  0.986647  1
  Ag  Ag1  1  0.333329  0.666659  0.385094  1
  Te  Te2  1  0.333309  0.666619  0.766871  1
  Te  Te3  1  0.666662  0.333324  0.231388  1
