# generated using pymatgen
data_LiY2Hg
_symmetry_space_group_name_H-M   'P 1'
_cell_length_a   5.24023594
_cell_length_b   5.24108682
_cell_length_c   5.24114707
_cell_angle_alpha   59.98895059
_cell_angle_beta   60.00237249
_cell_angle_gamma   60.00640272
_symmetry_Int_Tables_number   1
_chemical_formula_structural   LiY2Hg
_chemical_formula_sum   'Li1 Y2 Hg1'
_cell_volume   101.78318996
_cell_formula_units_Z   1
loop_
 _symmetry_equiv_pos_site_id
 _symmetry_equiv_pos_as_xyz
  1  'x, y, z'
loop_
 _atom_site_type_symbol
 _atom_site_label
 _atom_site_symmetry_multiplicity
 _atom_site_fract_x
 _atom_site_fract_y
 _atom_site_fract_z
 _atom_site_occupancy
  Li  Li0  1  0.749999  0.749999  0.749999  1
  Y  Y1  1  0.499996  0.500003  0.499995  1
  Y  Y2  1  0.000003  0.999995  0.000004  1
  Hg  Hg3  1  0.249998  0.249998  0.249998  1
