# generated using pymatgen
data_Mo2WSe6
_symmetry_space_group_name_H-M   'P 1'
_cell_length_a   3.32590314
_cell_length_b   3.32590069
_cell_length_c   30.68136749
_cell_angle_alpha   89.99907882
_cell_angle_beta   90.00000410
_cell_angle_gamma   119.99999848
_symmetry_Int_Tables_number   1
_chemical_formula_structural   Mo2WSe6
_chemical_formula_sum   'Mo2 W1 Se6'
_cell_volume   293.91667480
_cell_formula_units_Z   1
loop_
 _symmetry_equiv_pos_site_id
 _symmetry_equiv_pos_as_xyz
  1  'x, y, z'
loop_
 _atom_site_type_symbol
 _atom_site_label
 _atom_site_symmetry_multiplicity
 _atom_site_fract_x
 _atom_site_fract_y
 _atom_site_fract_z
 _atom_site_occupancy
  Mo  Mo0  1  0.333314  0.666627  0.115629  1
  Mo  Mo1  1  0.666691  0.333383  0.346999  1
  W  W2  1  0.333308  0.666616  0.578343  1
  Se  Se3  1  0.333354  0.666708  0.401447  1
  Se  Se4  1  0.666633  0.333266  0.061149  1
  Se  Se5  1  0.666652  0.333304  0.523567  1
  Se  Se6  1  0.666650  0.333300  0.170135  1
  Se  Se7  1  0.666644  0.333288  0.633092  1
  Se  Se8  1  0.333354  0.666708  0.292480  1
