# generated using pymatgen
data_LiZrN2
_symmetry_space_group_name_H-M   'P 1'
_cell_length_a   3.31586805
_cell_length_b   3.31586768
_cell_length_c   5.38797645
_cell_angle_alpha   90.01901506
_cell_angle_beta   90.01901512
_cell_angle_gamma   60.00643417
_symmetry_Int_Tables_number   1
_chemical_formula_structural   LiZrN2
_chemical_formula_sum   'Li1 Zr1 N2'
_cell_volume   51.30726603
_cell_formula_units_Z   1
loop_
 _symmetry_equiv_pos_site_id
 _symmetry_equiv_pos_as_xyz
  1  'x, y, z'
loop_
 _atom_site_type_symbol
 _atom_site_label
 _atom_site_symmetry_multiplicity
 _atom_site_fract_x
 _atom_site_fract_y
 _atom_site_fract_z
 _atom_site_occupancy
  Li  Li0  1  0.666692  0.666692  0.534090  1
  Zr  Zr1  1  0.999927  0.999927  0.973463  1
  N  N2  1  0.666664  0.666664  0.162386  1
  N  N3  1  0.333417  0.333417  0.747061  1
