# generated using pymatgen
data_TeWS
_symmetry_space_group_name_H-M   'P 1'
_cell_length_a   3.35967118
_cell_length_b   3.35967498
_cell_length_c   23.96887830
_cell_angle_alpha   90.00012596
_cell_angle_beta   90.00000000
_cell_angle_gamma   119.99996257
_symmetry_Int_Tables_number   1
_chemical_formula_structural   TeWS
_chemical_formula_sum   'Te2 W2 S2'
_cell_volume   234.30013836
_cell_formula_units_Z   2
loop_
 _symmetry_equiv_pos_site_id
 _symmetry_equiv_pos_as_xyz
  1  'x, y, z'
loop_
 _atom_site_type_symbol
 _atom_site_label
 _atom_site_symmetry_multiplicity
 _atom_site_fract_x
 _atom_site_fract_y
 _atom_site_fract_z
 _atom_site_occupancy
  Te  Te0  1  0.333357  0.666715  0.530771  1
  Te  Te1  1  0.333350  0.666702  0.372075  1
  W  W2  1  0.333311  0.666622  0.150435  1
  W  W3  1  0.666690  0.333381  0.451445  1
  S  S4  1  0.666646  0.333290  0.087087  1
  S  S5  1  0.666646  0.333290  0.213792  1
