# generated using pymatgen
data_Ti6Ga16Co7
_symmetry_space_group_name_H-M   'P 1'
_cell_length_a   8.35454266
_cell_length_b   8.35454266
_cell_length_c   8.35454266
_cell_angle_alpha   60.00000000
_cell_angle_beta   60.00000000
_cell_angle_gamma   60.00000000
_symmetry_Int_Tables_number   1
_chemical_formula_structural   Ti6Ga16Co7
_chemical_formula_sum   'Ti6 Ga16 Co7'
_cell_volume   412.33770117
_cell_formula_units_Z   1
loop_
 _symmetry_equiv_pos_site_id
 _symmetry_equiv_pos_as_xyz
  1  'x, y, z'
loop_
 _atom_site_type_symbol
 _atom_site_label
 _atom_site_symmetry_multiplicity
 _atom_site_fract_x
 _atom_site_fract_y
 _atom_site_fract_z
 _atom_site_occupancy
  Ti  Ti0  1  0.693455  0.306545  0.306545  1
  Ti  Ti1  1  0.693455  0.306545  0.693455  1
  Ti  Ti2  1  0.693455  0.693455  0.306545  1
  Ti  Ti3  1  0.306545  0.693455  0.693455  1
  Ti  Ti4  1  0.306545  0.693455  0.306545  1
  Ti  Ti5  1  0.306545  0.306545  0.693455  1
  Ga  Ga6  1  0.636327  0.121224  0.121224  1
  Ga  Ga7  1  0.121224  0.636327  0.121224  1
  Ga  Ga8  1  0.121224  0.121224  0.636327  1
  Ga  Ga9  1  0.121224  0.121224  0.121224  1
  Ga  Ga10  1  0.363673  0.878776  0.878776  1
  Ga  Ga11  1  0.878776  0.363673  0.878776  1
  Ga  Ga12  1  0.878776  0.878776  0.363673  1
  Ga  Ga13  1  0.878776  0.878776  0.878776  1
  Ga  Ga14  1  0.962697  0.345768  0.345768  1
  Ga  Ga15  1  0.345768  0.962697  0.345768  1
  Ga  Ga16  1  0.345768  0.345768  0.962697  1
  Ga  Ga17  1  0.345768  0.345768  0.345768  1
  Ga  Ga18  1  0.037303  0.654232  0.654232  1
  Ga  Ga19  1  0.654232  0.037303  0.654232  1
  Ga  Ga20  1  0.654232  0.654232  0.037303  1
  Ga  Ga21  1  0.654232  0.654232  0.654232  1
  Co  Co22  1  -0.000000  0.000000  0.000000  1
  Co  Co23  1  0.500000  0.000000  0.000000  1
  Co  Co24  1  0.500000  0.000000  0.500000  1
  Co  Co25  1  0.500000  0.500000  0.000000  1
  Co  Co26  1  0.000000  0.500000  0.500000  1
  Co  Co27  1  0.000000  0.500000  0.000000  1
  Co  Co28  1  -0.000000  0.000000  0.500000  1
