# generated using pymatgen
data_Na(NbS2)2
_symmetry_space_group_name_H-M   'P 1'
_cell_length_a   3.40984409
_cell_length_b   3.40983375
_cell_length_c   14.32019022
_cell_angle_alpha   89.99989975
_cell_angle_beta   89.99988781
_cell_angle_gamma   60.00021205
_symmetry_Int_Tables_number   1
_chemical_formula_structural   Na(NbS2)2
_chemical_formula_sum   'Na1 Nb2 S4'
_cell_volume   144.19429354
_cell_formula_units_Z   1
loop_
 _symmetry_equiv_pos_site_id
 _symmetry_equiv_pos_as_xyz
  1  'x, y, z'
loop_
 _atom_site_type_symbol
 _atom_site_label
 _atom_site_symmetry_multiplicity
 _atom_site_fract_x
 _atom_site_fract_y
 _atom_site_fract_z
 _atom_site_occupancy
  Na  Na0  1  0.666628  0.666687  0.999392  1
  Nb  Nb1  1  0.333355  0.333322  0.748341  1
  Nb  Nb2  1  0.666637  0.666682  0.251777  1
  S  S3  1  0.000009  0.999996  0.858803  1
  S  S4  1  0.999976  0.000011  0.141332  1
  S  S5  1  0.999975  0.000014  0.358111  1
  S  S6  1  0.000020  0.999988  0.642046  1
