# generated using pymatgen
data_Li3NbF6
_symmetry_space_group_name_H-M   'P 1'
_cell_length_a   5.72140186
_cell_length_b   5.72140191
_cell_length_c   5.72140190
_cell_angle_alpha   59.99999980
_cell_angle_beta   59.99999976
_cell_angle_gamma   59.99999977
_symmetry_Int_Tables_number   1
_chemical_formula_structural   Li3NbF6
_chemical_formula_sum   'Li3 Nb1 F6'
_cell_volume   132.43182542
_cell_formula_units_Z   1
loop_
 _symmetry_equiv_pos_site_id
 _symmetry_equiv_pos_as_xyz
  1  'x, y, z'
loop_
 _atom_site_type_symbol
 _atom_site_label
 _atom_site_symmetry_multiplicity
 _atom_site_fract_x
 _atom_site_fract_y
 _atom_site_fract_z
 _atom_site_occupancy
  Li  Li0  1  0.250000  0.250000  0.250000  1
  Li  Li1  1  0.750000  0.750000  0.750000  1
  Li  Li2  1  0.500000  0.500000  0.500000  1
  Nb  Nb3  1  -0.000000  0.000000  0.000000  1
  F  F4  1  0.257176  0.742824  0.257176  1
  F  F5  1  0.742824  0.742824  0.257176  1
  F  F6  1  0.742824  0.257176  0.742824  1
  F  F7  1  0.742824  0.257176  0.257176  1
  F  F8  1  0.257176  0.742824  0.742824  1
  F  F9  1  0.257176  0.257176  0.742824  1
