# generated using pymatgen
data_Sr7Cu44As23
_symmetry_space_group_name_H-M   'P 1'
_cell_length_a   11.86423312
_cell_length_b   11.86423312
_cell_length_c   11.86423312
_cell_angle_alpha   60.00000000
_cell_angle_beta   60.00000000
_cell_angle_gamma   60.00000000
_symmetry_Int_Tables_number   1
_chemical_formula_structural   Sr7Cu44As23
_chemical_formula_sum   'Sr7 Cu44 As23'
_cell_volume   1180.87523932
_cell_formula_units_Z   1
loop_
 _symmetry_equiv_pos_site_id
 _symmetry_equiv_pos_as_xyz
  1  'x, y, z'
loop_
 _atom_site_type_symbol
 _atom_site_label
 _atom_site_symmetry_multiplicity
 _atom_site_fract_x
 _atom_site_fract_y
 _atom_site_fract_z
 _atom_site_occupancy
  Sr  Sr0  1  0.756141  0.243859  0.243859  1
  Sr  Sr1  1  0.756141  0.243859  0.756141  1
  Sr  Sr2  1  0.756141  0.756141  0.243859  1
  Sr  Sr3  1  0.243859  0.756141  0.756141  1
  Sr  Sr4  1  0.243859  0.756141  0.243859  1
  Sr  Sr5  1  0.243859  0.243859  0.756141  1
  Sr  Sr6  1  0.000000  0.000000  0.000000  1
  Cu  Cu7  1  0.471751  0.019370  0.254439  1
  Cu  Cu8  1  0.471751  0.254439  0.254439  1
  Cu  Cu9  1  0.471751  0.254439  0.019370  1
  Cu  Cu10  1  0.019370  0.471751  0.254439  1
  Cu  Cu11  1  0.254439  0.471751  0.019370  1
  Cu  Cu12  1  0.254439  0.471751  0.254439  1
  Cu  Cu13  1  0.254439  0.254439  0.471751  1
  Cu  Cu14  1  0.254439  0.019370  0.471751  1
  Cu  Cu15  1  0.019370  0.254439  0.471751  1
  Cu  Cu16  1  0.254439  0.254439  0.019370  1
  Cu  Cu17  1  0.019370  0.254439  0.254439  1
  Cu  Cu18  1  0.254439  0.019370  0.254439  1
  Cu  Cu19  1  0.528249  0.980630  0.745560  1
  Cu  Cu20  1  0.528249  0.745560  0.745560  1
  Cu  Cu21  1  0.528249  0.745560  0.980630  1
  Cu  Cu22  1  0.980630  0.528249  0.745560  1
  Cu  Cu23  1  0.745560  0.528249  0.980630  1
  Cu  Cu24  1  0.745560  0.528249  0.745560  1
  Cu  Cu25  1  0.745560  0.745560  0.528249  1
  Cu  Cu26  1  0.745560  0.980630  0.528249  1
  Cu  Cu27  1  0.980630  0.745560  0.528249  1
  Cu  Cu28  1  0.745560  0.745560  0.980630  1
  Cu  Cu29  1  0.980630  0.745560  0.745560  1
  Cu  Cu30  1  0.745560  0.980630  0.745560  1
  Cu  Cu31  1  0.635783  0.000000  0.000000  1
  Cu  Cu32  1  0.635783  -0.000000  0.364217  1
  Cu  Cu33  1  0.635783  0.364217  -0.000000  1
  Cu  Cu34  1  -0.000000  0.635783  0.364217  1
  Cu  Cu35  1  -0.000000  0.635783  0.000000  1
  Cu  Cu36  1  0.364217  0.635783  0.000000  1
  Cu  Cu37  1  -0.000000  0.364217  0.635783  1
  Cu  Cu38  1  0.364217  0.000000  0.635783  1
  Cu  Cu39  1  -0.000000  0.000000  0.635783  1
  Cu  Cu40  1  0.364217  -0.000000  0.000000  1
  Cu  Cu41  1  -0.000000  0.364217  0.000000  1
  Cu  Cu42  1  0.000000  -0.000000  0.364217  1
  Cu  Cu43  1  0.763909  0.412030  0.412030  1
  Cu  Cu44  1  0.412030  0.763909  0.412030  1
  Cu  Cu45  1  0.412030  0.412030  0.763909  1
  Cu  Cu46  1  0.412030  0.412030  0.412030  1
  Cu  Cu47  1  0.236091  0.587970  0.587970  1
  Cu  Cu48  1  0.587970  0.236091  0.587970  1
  Cu  Cu49  1  0.587970  0.587970  0.236091  1
  Cu  Cu50  1  0.587970  0.587970  0.587970  1
  As  As51  1  0.156062  0.500000  0.500000  1
  As  As52  1  0.156062  0.500000  0.843938  1
  As  As53  1  0.156062  0.843938  0.500000  1
  As  As54  1  0.500000  0.156062  0.843938  1
  As  As55  1  0.500000  0.156062  0.500000  1
  As  As56  1  0.843938  0.156062  0.500000  1
  As  As57  1  0.500000  0.843938  0.156062  1
  As  As58  1  0.843938  0.500000  0.156062  1
  As  As59  1  0.500000  0.500000  0.156062  1
  As  As60  1  0.843938  0.500000  0.500000  1
  As  As61  1  0.500000  0.843938  0.500000  1
  As  As62  1  0.500000  0.500000  0.843938  1
  As  As63  1  0.668054  0.110649  0.110649  1
  As  As64  1  0.110649  0.668054  0.110649  1
  As  As65  1  0.110649  0.110649  0.668054  1
  As  As66  1  0.110649  0.110649  0.110649  1
  As  As67  1  0.331946  0.889351  0.889351  1
  As  As68  1  0.889351  0.331946  0.889351  1
  As  As69  1  0.889351  0.889351  0.331946  1
  As  As70  1  0.889351  0.889351  0.889351  1
  As  As71  1  0.250000  0.250000  0.250000  1
  As  As72  1  0.750000  0.750000  0.750000  1
  As  As73  1  0.500000  0.500000  0.500000  1
