# generated using pymatgen
data_Mn8HO16
_symmetry_space_group_name_H-M   'P 1'
_cell_length_a   5.91599221
_cell_length_b   9.99858645
_cell_length_c   9.93422253
_cell_angle_alpha   89.99733834
_cell_angle_beta   90.00004902
_cell_angle_gamma   89.99997114
_symmetry_Int_Tables_number   1
_chemical_formula_structural   Mn8HO16
_chemical_formula_sum   'Mn16 H2 O32'
_cell_volume   587.62475484
_cell_formula_units_Z   2
loop_
 _symmetry_equiv_pos_site_id
 _symmetry_equiv_pos_as_xyz
  1  'x, y, z'
loop_
 _atom_site_type_symbol
 _atom_site_label
 _atom_site_symmetry_multiplicity
 _atom_site_fract_x
 _atom_site_fract_y
 _atom_site_fract_z
 _atom_site_occupancy
  Mn  Mn0  1  0.508541  0.165335  0.344739  1
  Mn  Mn1  1  0.002759  0.165866  0.347757  1
  Mn  Mn2  1  0.495662  0.348556  0.831545  1
  Mn  Mn3  1  0.995878  0.354788  0.836376  1
  Mn  Mn4  1  0.996996  0.648176  0.164072  1
  Mn  Mn5  1  0.505323  0.650001  0.163459  1
  Mn  Mn6  1  0.998525  0.833310  0.651159  1
  Mn  Mn7  1  0.499052  0.833898  0.650931  1
  Mn  Mn8  1  0.741533  0.665671  0.844922  1
  Mn  Mn9  1  0.247225  0.666032  0.848090  1
  Mn  Mn10  1  0.754334  0.848525  0.331614  1
  Mn  Mn11  1  0.254274  0.854626  0.336413  1
  Mn  Mn12  1  0.744726  0.150093  0.663378  1
  Mn  Mn13  1  0.252926  0.148361  0.664019  1
  Mn  Mn14  1  0.750785  0.333818  0.150774  1
  Mn  Mn15  1  0.251328  0.333128  0.150905  1
  H  H16  1  0.287447  0.596920  0.390031  1
  H  H17  1  0.962760  0.097023  0.889974  1
  O  O18  1  0.748697  0.957080  0.670014  1
  O  O19  1  0.248965  0.954548  0.666963  1
  O  O20  1  0.737988  0.661153  0.036096  1
  O  O21  1  0.252757  0.662249  0.043590  1
  O  O22  1  0.745829  0.341833  0.957434  1
  O  O23  1  0.247117  0.338190  0.957153  1
  O  O24  1  0.756243  0.042649  0.327673  1
  O  O25  1  0.253547  0.043379  0.332282  1
  O  O26  1  0.000918  0.454418  0.166849  1
  O  O27  1  0.501230  0.456983  0.169919  1
  O  O28  1  0.997270  0.162248  0.543423  1
  O  O29  1  0.512070  0.161087  0.536020  1
  O  O30  1  0.504124  0.841833  0.457530  1
  O  O31  1  0.002901  0.838136  0.457278  1
  O  O32  1  0.493803  0.542822  0.827776  1
  O  O33  1  0.996468  0.543568  0.832384  1
  O  O34  1  0.495652  0.793913  0.842672  1
  O  O35  1  0.996381  0.793756  0.843287  1
  O  O36  1  0.008323  0.841636  0.207137  1
  O  O37  1  0.500823  0.842720  0.204702  1
  O  O38  1  0.001978  0.204622  0.153706  1
  O  O39  1  0.501887  0.206951  0.150561  1
  O  O40  1  0.501157  0.157146  0.793916  1
  O  O41  1  0.982937  0.154118  0.810689  1
  O  O42  1  0.754319  0.293719  0.342500  1
  O  O43  1  0.253574  0.293543  0.343082  1
  O  O44  1  0.749269  0.342822  0.704643  1
  O  O45  1  0.241681  0.341793  0.707057  1
  O  O46  1  0.748049  0.707081  0.650716  1
  O  O47  1  0.247957  0.704768  0.653948  1
  O  O48  1  0.748840  0.657032  0.294028  1
  O  O49  1  0.267171  0.653981  0.310722  1
