# generated using pymatgen
data_Sr2Fe23O38
_symmetry_space_group_name_H-M   'P 1'
_cell_length_a   5.99366199
_cell_length_b   5.99402698
_cell_length_c   23.38703386
_cell_angle_alpha   89.93107410
_cell_angle_beta   90.07499297
_cell_angle_gamma   120.04118684
_symmetry_Int_Tables_number   1
_chemical_formula_structural   Sr2Fe23O38
_chemical_formula_sum   'Sr2 Fe23 O38'
_cell_volume   727.33730779
_cell_formula_units_Z   1
loop_
 _symmetry_equiv_pos_site_id
 _symmetry_equiv_pos_as_xyz
  1  'x, y, z'
loop_
 _atom_site_type_symbol
 _atom_site_label
 _atom_site_symmetry_multiplicity
 _atom_site_fract_x
 _atom_site_fract_y
 _atom_site_fract_z
 _atom_site_occupancy
  Sr  Sr0  1  0.333264  0.666694  0.749479  1
  Sr  Sr1  1  0.665522  0.334095  0.250332  1
  Fe  Fe2  1  0.168203  0.831796  0.609447  1
  Fe  Fe3  1  0.168401  0.831628  0.890609  1
  Fe  Fe4  1  0.333196  0.666753  0.191715  1
  Fe  Fe5  1  0.333295  0.666733  0.027244  1
  Fe  Fe6  1  0.168167  0.336500  0.609430  1
  Fe  Fe7  1  0.330928  0.668398  0.304980  1
  Fe  Fe8  1  0.000063  0.999983  0.000163  1
  Fe  Fe9  1  0.000129  0.999921  0.499703  1
  Fe  Fe10  1  0.999973  0.000036  0.751256  1
  Fe  Fe11  1  0.333230  0.666719  0.472541  1
  Fe  Fe12  1  0.168435  0.336820  0.890593  1
  Fe  Fe13  1  0.663187  0.831583  0.890588  1
  Fe  Fe14  1  0.663496  0.831831  0.609427  1
  Fe  Fe15  1  0.334711  0.167187  0.109825  1
  Fe  Fe16  1  0.334062  0.167453  0.389715  1
  Fe  Fe17  1  0.666725  0.333301  0.690978  1
  Fe  Fe18  1  0.666905  0.333204  0.973055  1
  Fe  Fe19  1  0.666691  0.333315  0.526520  1
  Fe  Fe20  1  0.666587  0.333397  0.809019  1
  Fe  Fe21  1  0.832462  0.665946  0.389756  1
  Fe  Fe22  1  0.832982  0.665491  0.109837  1
  Fe  Fe23  1  0.833188  0.166947  0.109865  1
  Fe  Fe24  1  0.832991  0.166843  0.389985  1
  O  O25  1  0.156419  0.843666  0.052830  1
  O  O26  1  0.156089  0.843939  0.447144  1
  O  O27  1  0.011854  0.506024  0.848600  1
  O  O28  1  0.012129  0.505917  0.651603  1
  O  O29  1  0.194590  0.805298  0.253261  1
  O  O30  1  0.333409  0.666644  0.944249  1
  O  O31  1  0.333203  0.666731  0.555766  1
  O  O32  1  0.156308  0.312473  0.052841  1
  O  O33  1  0.000239  0.999930  0.147926  1
  O  O34  1  0.999578  0.000285  0.352393  1
  O  O35  1  0.000103  0.999933  0.651970  1
  O  O36  1  0.156279  0.312273  0.447199  1
  O  O37  1  0.999956  0.000050  0.847755  1
  O  O38  1  0.197287  0.393521  0.251704  1
  O  O39  1  0.494124  0.987893  0.651601  1
  O  O40  1  0.493969  0.988137  0.848591  1
  O  O41  1  0.605893  0.802401  0.251517  1
  O  O42  1  0.311972  0.156044  0.552787  1
  O  O43  1  0.311287  0.155607  0.947154  1
  O  O44  1  0.494013  0.506038  0.651599  1
  O  O45  1  0.494019  0.505965  0.848560  1
  O  O46  1  0.501442  0.498613  0.347463  1
  O  O47  1  0.506607  0.493574  0.152425  1
  O  O48  1  0.687604  0.843774  0.052846  1
  O  O49  1  0.687693  0.843727  0.447208  1
  O  O50  1  0.365366  0.182596  0.750104  1
  O  O51  1  0.504386  0.007731  0.152590  1
  O  O52  1  0.502084  0.003326  0.347575  1
  O  O53  1  0.666769  0.333240  0.442672  1
  O  O54  1  0.667341  0.332945  0.056329  1
  O  O55  1  0.817433  0.634659  0.750111  1
  O  O56  1  0.844441  0.688771  0.947147  1
  O  O57  1  0.843954  0.688054  0.552777  1
  O  O58  1  0.817395  0.182690  0.750150  1
  O  O59  1  0.992958  0.496055  0.152585  1
  O  O60  1  0.996474  0.497844  0.347595  1
  O  O61  1  0.844455  0.155583  0.947112  1
  O  O62  1  0.844095  0.155877  0.552729  1
