# generated using pymatgen
data_CaMn12O24
_symmetry_space_group_name_H-M   'P 1'
_cell_length_a   5.89170086
_cell_length_b   13.92075231
_cell_length_c   9.74982497
_cell_angle_alpha   90.72150598
_cell_angle_beta   89.98039289
_cell_angle_gamma   90.00127969
_symmetry_Int_Tables_number   1
_chemical_formula_structural   CaMn12O24
_chemical_formula_sum   'Ca2 Mn24 O48'
_cell_volume   799.58705308
_cell_formula_units_Z   2
loop_
 _symmetry_equiv_pos_site_id
 _symmetry_equiv_pos_as_xyz
  1  'x, y, z'
loop_
 _atom_site_type_symbol
 _atom_site_label
 _atom_site_symmetry_multiplicity
 _atom_site_fract_x
 _atom_site_fract_y
 _atom_site_fract_z
 _atom_site_occupancy
  Ca  Ca0  1  0.497614  0.738622  0.011572  1
  Ca  Ca1  1  0.252892  0.238392  0.511444  1
  Mn  Mn2  1  0.247835  0.491454  0.504680  1
  Mn  Mn3  1  0.249727  0.511028  0.997560  1
  Mn  Mn4  1  0.751641  0.487619  0.506751  1
  Mn  Mn5  1  0.750137  0.512085  0.996190  1
  Mn  Mn6  1  0.246695  0.850147  0.732383  1
  Mn  Mn7  1  0.246953  0.843348  0.278878  1
  Mn  Mn8  1  0.754214  0.849850  0.731495  1
  Mn  Mn9  1  0.752254  0.843630  0.278928  1
  Mn  Mn10  1  0.249444  0.153866  0.780022  1
  Mn  Mn11  1  0.249856  0.158103  0.216908  1
  Mn  Mn12  1  0.751069  0.152614  0.764292  1
  Mn  Mn13  1  0.749409  0.160002  0.229927  1
  Mn  Mn14  1  0.502152  0.991426  0.004815  1
  Mn  Mn15  1  0.500254  0.010883  0.497818  1
  Mn  Mn16  1  0.998343  0.987582  0.006878  1
  Mn  Mn17  1  0.999891  0.012115  0.496324  1
  Mn  Mn18  1  0.502989  0.343366  0.778594  1
  Mn  Mn19  1  0.503353  0.350129  0.232334  1
  Mn  Mn20  1  0.997665  0.343637  0.778648  1
  Mn  Mn21  1  0.995899  0.349751  0.231443  1
  Mn  Mn22  1  0.500204  0.658189  0.716791  1
  Mn  Mn23  1  0.500403  0.653835  0.280075  1
  Mn  Mn24  1  0.000659  0.660068  0.729725  1
  Mn  Mn25  1  0.998774  0.652601  0.264313  1
  O  O26  1  0.250735  0.077575  0.591728  1
  O  O27  1  0.250624  0.051590  0.097729  1
  O  O28  1  0.749657  0.074904  0.592070  1
  O  O29  1  0.749303  0.051796  0.102493  1
  O  O30  1  0.254020  0.924327  0.911082  1
  O  O31  1  0.250669  0.949893  0.403425  1
  O  O32  1  0.746514  0.924080  0.911669  1
  O  O33  1  0.749249  0.951681  0.400881  1
  O  O34  1  0.000693  0.551839  0.602269  1
  O  O35  1  0.000265  0.574979  0.091966  1
  O  O36  1  0.499323  0.551608  0.597494  1
  O  O37  1  0.499255  0.577709  0.091492  1
  O  O38  1  0.499343  0.449970  0.903063  1
  O  O39  1  0.496001  0.424380  0.411032  1
  O  O40  1  0.000805  0.451725  0.900593  1
  O  O41  1  0.003483  0.424181  0.411609  1
  O  O42  1  0.996561  0.092675  0.859008  1
  O  O43  1  0.007895  0.117918  0.342121  1
  O  O44  1  0.503620  0.092581  0.860808  1
  O  O45  1  0.491460  0.117704  0.343268  1
  O  O46  1  0.000586  0.910350  0.642911  1
  O  O47  1  0.999966  0.889883  0.170354  1
  O  O48  1  0.500453  0.910735  0.640524  1
  O  O49  1  0.499732  0.884811  0.159892  1
  O  O50  1  0.258361  0.617682  0.842873  1
  O  O51  1  0.246154  0.592440  0.360828  1
  O  O52  1  0.741993  0.617953  0.841709  1
  O  O53  1  0.753135  0.592565  0.359047  1
  O  O54  1  0.250391  0.384881  0.659372  1
  O  O55  1  0.249791  0.410697  0.140387  1
  O  O56  1  0.750194  0.389908  0.669909  1
  O  O57  1  0.749668  0.410259  0.142859  1
  O  O58  1  0.002279  0.221616  0.681379  1
  O  O59  1  0.992497  0.223247  0.127836  1
  O  O60  1  0.499114  0.221775  0.681853  1
  O  O61  1  0.507043  0.223389  0.128166  1
  O  O62  1  0.000022  0.781846  0.824852  1
  O  O63  1  0.998837  0.778115  0.373005  1
  O  O64  1  0.500706  0.782364  0.806288  1
  O  O65  1  0.500095  0.778412  0.376104  1
  O  O66  1  0.243273  0.723481  0.627899  1
  O  O67  1  0.251014  0.721787  0.182008  1
  O  O68  1  0.757862  0.723323  0.627679  1
  O  O69  1  0.747812  0.721615  0.181509  1
  O  O70  1  0.249578  0.278567  0.875804  1
  O  O71  1  0.249086  0.282419  0.306401  1
  O  O72  1  0.750760  0.278272  0.872692  1
  O  O73  1  0.749880  0.281893  0.324930  1
