# generated using pymatgen
data_Mn20(WC2)3
_symmetry_space_group_name_H-M   'P 1'
_cell_length_a   7.44630173
_cell_length_b   7.44630173
_cell_length_c   7.44630173
_cell_angle_alpha   60.00000000
_cell_angle_beta   60.00000000
_cell_angle_gamma   60.00000000
_symmetry_Int_Tables_number   1
_chemical_formula_structural   Mn20(WC2)3
_chemical_formula_sum   'Mn20 W3 C6'
_cell_volume   291.94893359
_cell_formula_units_Z   1
loop_
 _symmetry_equiv_pos_site_id
 _symmetry_equiv_pos_as_xyz
  1  'x, y, z'
loop_
 _atom_site_type_symbol
 _atom_site_label
 _atom_site_symmetry_multiplicity
 _atom_site_fract_x
 _atom_site_fract_y
 _atom_site_fract_z
 _atom_site_occupancy
  Mn  Mn0  1  0.846916  0.384361  0.384361  1
  Mn  Mn1  1  0.384361  0.846916  0.384361  1
  Mn  Mn2  1  0.384361  0.384361  0.846916  1
  Mn  Mn3  1  0.384361  0.384361  0.384361  1
  Mn  Mn4  1  0.153084  0.615639  0.615639  1
  Mn  Mn5  1  0.615639  0.153084  0.615639  1
  Mn  Mn6  1  0.615639  0.615639  0.153084  1
  Mn  Mn7  1  0.615639  0.615639  0.615639  1
  Mn  Mn8  1  0.658775  -0.000000  0.000000  1
  Mn  Mn9  1  0.658775  -0.000000  0.341225  1
  Mn  Mn10  1  0.658775  0.341225  0.000000  1
  Mn  Mn11  1  -0.000000  0.658775  0.341225  1
  Mn  Mn12  1  -0.000000  0.658775  0.000000  1
  Mn  Mn13  1  0.341225  0.658775  0.000000  1
  Mn  Mn14  1  -0.000000  0.341225  0.658775  1
  Mn  Mn15  1  0.341225  -0.000000  0.658775  1
  Mn  Mn16  1  -0.000000  -0.000000  0.658775  1
  Mn  Mn17  1  0.341225  -0.000000  0.000000  1
  Mn  Mn18  1  -0.000000  0.341225  0.000000  1
  Mn  Mn19  1  -0.000000  0.000000  0.341225  1
  W  W20  1  -0.000000  -0.000000  0.000000  1
  W  W21  1  0.250000  0.250000  0.250000  1
  W  W22  1  0.750000  0.750000  0.750000  1
  C  C23  1  0.725988  0.274012  0.274012  1
  C  C24  1  0.725988  0.274012  0.725988  1
  C  C25  1  0.725988  0.725988  0.274012  1
  C  C26  1  0.274012  0.725988  0.725988  1
  C  C27  1  0.274012  0.725988  0.274012  1
  C  C28  1  0.274012  0.274012  0.725988  1
