# generated using pymatgen
data_Sr4Ga2O7
_symmetry_space_group_name_H-M   'P 1'
_cell_length_a   13.18094328
_cell_length_b   15.92953238
_cell_length_c   16.00032353
_cell_angle_alpha   90.00000000
_cell_angle_beta   90.72714109
_cell_angle_gamma   90.00000000
_symmetry_Int_Tables_number   1
_chemical_formula_structural   Sr4Ga2O7
_chemical_formula_sum   'Sr64 Ga32 O112'
_cell_volume   3359.25759468
_cell_formula_units_Z   16
loop_
 _symmetry_equiv_pos_site_id
 _symmetry_equiv_pos_as_xyz
  1  'x, y, z'
loop_
 _atom_site_type_symbol
 _atom_site_label
 _atom_site_symmetry_multiplicity
 _atom_site_fract_x
 _atom_site_fract_y
 _atom_site_fract_z
 _atom_site_occupancy
  Sr  Sr0  1  0.430606  0.128934  0.329416  1
  Sr  Sr1  1  0.430606  0.871066  0.829416  1
  Sr  Sr2  1  0.446741  0.126888  0.083695  1
  Sr  Sr3  1  0.446741  0.873112  0.583695  1
  Sr  Sr4  1  0.599719  0.988087  0.218245  1
  Sr  Sr5  1  0.599719  0.011913  0.718245  1
  Sr  Sr6  1  0.749331  0.115270  0.082694  1
  Sr  Sr7  1  0.749331  0.884730  0.582694  1
  Sr  Sr8  1  0.758189  0.357495  0.054112  1
  Sr  Sr9  1  0.758189  0.642505  0.554112  1
  Sr  Sr10  1  0.141668  0.109087  0.081145  1
  Sr  Sr11  1  0.141668  0.890913  0.581145  1
  Sr  Sr12  1  0.443186  0.370448  0.332904  1
  Sr  Sr13  1  0.443186  0.629552  0.832904  1
  Sr  Sr14  1  0.102355  0.122928  0.332100  1
  Sr  Sr15  1  0.102355  0.877072  0.832100  1
  Sr  Sr16  1  0.432111  0.384368  0.819853  1
  Sr  Sr17  1  0.432111  0.615632  0.319853  1
  Sr  Sr18  1  0.592646  0.479048  0.202603  1
  Sr  Sr19  1  0.592646  0.520952  0.702603  1
  Sr  Sr20  1  0.084438  0.348821  0.324737  1
  Sr  Sr21  1  0.084438  0.651179  0.824737  1
  Sr  Sr22  1  0.770926  0.620963  0.085923  1
  Sr  Sr23  1  0.770926  0.379037  0.585923  1
  Sr  Sr24  1  0.777932  0.336678  0.333548  1
  Sr  Sr25  1  0.777932  0.663322  0.833548  1
  Sr  Sr26  1  0.937819  0.497390  0.954597  1
  Sr  Sr27  1  0.937819  0.502610  0.454597  1
  Sr  Sr28  1  0.755408  0.402141  0.821788  1
  Sr  Sr29  1  0.755408  0.597859  0.321788  1
  Sr  Sr30  1  0.258590  0.252249  0.942882  1
  Sr  Sr31  1  0.258590  0.747751  0.442882  1
  Sr  Sr32  1  0.749923  0.172505  0.858352  1
  Sr  Sr33  1  0.749923  0.827495  0.358352  1
  Sr  Sr34  1  0.131993  0.370991  0.096773  1
  Sr  Sr35  1  0.131993  0.629009  0.596773  1
  Sr  Sr36  1  0.942651  0.233972  0.153025  1
  Sr  Sr37  1  0.942651  0.766028  0.653025  1
  Sr  Sr38  1  0.947173  0.256927  0.726636  1
  Sr  Sr39  1  0.947173  0.743073  0.226636  1
  Sr  Sr40  1  0.453340  0.869553  0.073309  1
  Sr  Sr41  1  0.453340  0.130447  0.573309  1
  Sr  Sr42  1  0.461041  0.625591  0.075401  1
  Sr  Sr43  1  0.461041  0.374409  0.575401  1
  Sr  Sr44  1  0.089340  0.366789  0.569543  1
  Sr  Sr45  1  0.089340  0.633211  0.069543  1
  Sr  Sr46  1  0.286713  0.252751  0.462039  1
  Sr  Sr47  1  0.286713  0.747249  0.962039  1
  Sr  Sr48  1  0.773240  0.880869  0.059959  1
  Sr  Sr49  1  0.773240  0.119131  0.559959  1
  Sr  Sr50  1  0.114496  0.103651  0.785589  1
  Sr  Sr51  1  0.114496  0.896349  0.285589  1
  Sr  Sr52  1  0.097630  0.432052  0.807531  1
  Sr  Sr53  1  0.097630  0.567948  0.307531  1
  Sr  Sr54  1  0.088206  0.879683  0.063548  1
  Sr  Sr55  1  0.088206  0.120317  0.563548  1
  Sr  Sr56  1  0.429451  0.125349  0.835818  1
  Sr  Sr57  1  0.429451  0.874651  0.335818  1
  Sr  Sr58  1  0.808278  0.888761  0.827225  1
  Sr  Sr59  1  0.808278  0.111239  0.327225  1
  Sr  Sr60  1  0.418469  0.383544  0.058772  1
  Sr  Sr61  1  0.418469  0.616456  0.558772  1
  Sr  Sr62  1  0.943815  0.037732  0.943500  1
  Sr  Sr63  1  0.943815  0.962268  0.443500  1
  Ga  Ga64  1  0.620846  0.245812  0.194052  1
  Ga  Ga65  1  0.620846  0.754188  0.694052  1
  Ga  Ga66  1  0.617432  0.017901  0.951389  1
  Ga  Ga67  1  0.617432  0.982099  0.451389  1
  Ga  Ga68  1  0.575496  0.254109  0.967603  1
  Ga  Ga69  1  0.575496  0.745891  0.467603  1
  Ga  Ga70  1  0.253854  0.265126  0.698289  1
  Ga  Ga71  1  0.253854  0.734874  0.198289  1
  Ga  Ga72  1  0.261142  0.000100  0.441413  1
  Ga  Ga73  1  0.261142  -0.000100  0.941413  1
  Ga  Ga74  1  0.963297  0.255414  0.940790  1
  Ga  Ga75  1  0.963297  0.744586  0.440790  1
  Ga  Ga76  1  0.250198  0.512417  0.962964  1
  Ga  Ga77  1  0.250198  0.487583  0.462964  1
  Ga  Ga78  1  0.274803  0.506707  0.192349  1
  Ga  Ga79  1  0.274803  0.493293  0.692349  1
  Ga  Ga80  1  0.912127  0.479626  0.193891  1
  Ga  Ga81  1  0.912127  0.520374  0.693891  1
  Ga  Ga82  1  0.919790  0.995904  0.189052  1
  Ga  Ga83  1  0.919790  0.004096  0.689052  1
  Ga  Ga84  1  0.611370  0.251663  0.466734  1
  Ga  Ga85  1  0.611370  0.748337  0.966734  1
  Ga  Ga86  1  0.261634  0.234830  0.204738  1
  Ga  Ga87  1  0.261634  0.765170  0.704738  1
  Ga  Ga88  1  0.627822  0.743726  0.198732  1
  Ga  Ga89  1  0.627822  0.256273  0.698732  1
  Ga  Ga90  1  0.291730  0.006712  0.207602  1
  Ga  Ga91  1  0.291730  0.993288  0.707602  1
  Ga  Ga92  1  0.952608  0.763425  0.940518  1
  Ga  Ga93  1  0.952608  0.236575  0.440518  1
  Ga  Ga94  1  0.621036  0.514552  0.955670  1
  Ga  Ga95  1  0.621036  0.485448  0.455670  1
  O  O96  1  0.763009  0.233518  0.189708  1
  O  O97  1  0.763009  0.766482  0.689708  1
  O  O98  1  0.602093  0.335758  0.263089  1
  O  O99  1  0.602093  0.664242  0.763089  1
  O  O100  1  0.559497  0.142632  0.208408  1
  O  O101  1  0.559497  0.857368  0.708408  1
  O  O102  1  0.577060  0.284264  0.083541  1
  O  O103  1  0.577060  0.715736  0.583541  1
  O  O104  1  0.759982  0.488302  0.961084  1
  O  O105  1  0.759982  0.511698  0.461084  1
  O  O106  1  0.118564  0.230218  0.208294  1
  O  O107  1  0.118564  0.769782  0.708294  1
  O  O108  1  0.120553  0.002621  0.957389  1
  O  O109  1  0.120553  0.997379  0.457389  1
  O  O110  1  0.597846  0.137212  0.972035  1
  O  O111  1  0.597846  0.862788  0.472035  1
  O  O112  1  0.600717  0.978135  0.059168  1
  O  O113  1  0.600717  0.021865  0.559168  1
  O  O114  1  0.270453  0.205307  0.797075  1
  O  O115  1  0.270453  0.794693  0.297075  1
  O  O116  1  0.533994  0.992365  0.864206  1
  O  O117  1  0.533994  0.007635  0.364206  1
  O  O118  1  0.100276  0.757835  0.950581  1
  O  O119  1  0.100276  0.242165  0.450581  1
  O  O120  1  0.082797  0.246650  0.005339  1
  O  O121  1  0.082797  0.753350  0.505339  1
  O  O122  1  0.445353  0.272932  0.931277  1
  O  O123  1  0.445353  0.727068  0.431277  1
  O  O124  1  0.170435  0.444461  0.236840  1
  O  O125  1  0.170435  0.555539  0.736840  1
  O  O126  1  0.951735  0.075495  0.104208  1
  O  O127  1  0.951735  0.924505  0.604208  1
  O  O128  1  0.974756  0.024095  0.294491  1
  O  O129  1  0.974756  0.975905  0.794491  1
  O  O130  1  0.264334  0.002560  0.322675  1
  O  O131  1  0.264334  0.997440  0.822675  1
  O  O132  1  0.305002  0.122359  0.184646  1
  O  O133  1  0.305002  0.877641  0.684646  1
  O  O134  1  0.946641  0.357752  0.881028  1
  O  O135  1  0.946641  0.642248  0.381028  1
  O  O136  1  0.417223  0.964862  0.188580  1
  O  O137  1  0.417223  0.035138  0.688580  1
  O  O138  1  0.959057  0.171963  0.855835  1
  O  O139  1  0.959057  0.828037  0.355835  1
  O  O140  1  0.119156  0.243855  0.663124  1
  O  O141  1  0.119156  0.756145  0.163124  1
  O  O142  1  0.311316  0.258875  0.308885  1
  O  O143  1  0.311316  0.741125  0.808885  1
  O  O144  1  0.767599  0.721536  0.219105  1
  O  O145  1  0.767599  0.278464  0.719105  1
  O  O146  1  0.932595  0.759636  0.823187  1
  O  O147  1  0.932595  0.240364  0.323187  1
  O  O148  1  0.777830  0.010670  0.196707  1
  O  O149  1  0.777830  0.989330  0.696707  1
  O  O150  1  0.971063  0.586406  0.173870  1
  O  O151  1  0.971063  0.413594  0.673870  1
  O  O152  1  0.114484  0.538035  0.936440  1
  O  O153  1  0.114484  0.461965  0.436440  1
  O  O154  1  0.926622  0.875204  0.967162  1
  O  O155  1  0.926622  0.124796  0.467162  1
  O  O156  1  0.407140  0.476356  0.209269  1
  O  O157  1  0.407140  0.523644  0.709269  1
  O  O158  1  0.852665  0.225414  0.008789  1
  O  O159  1  0.852665  0.774586  0.508789  1
  O  O160  1  0.722986  0.205803  0.420173  1
  O  O161  1  0.722986  0.794197  0.920173  1
  O  O162  1  0.680575  0.304486  0.915084  1
  O  O163  1  0.680575  0.695514  0.415084  1
  O  O164  1  0.936268  0.450283  0.306585  1
  O  O165  1  0.936268  0.549717  0.806585  1
  O  O166  1  0.770799  0.497180  0.184993  1
  O  O167  1  0.770799  0.502820  0.684993  1
  O  O168  1  0.565120  0.639693  0.206595  1
  O  O169  1  0.565120  0.360307  0.706595  1
  O  O170  1  0.477250  0.234189  0.440443  1
  O  O171  1  0.477250  0.765811  0.940443  1
  O  O172  1  0.346186  0.255354  0.612700  1
  O  O173  1  0.346186  0.744646  0.112700  1
  O  O174  1  0.944326  0.398483  0.111547  1
  O  O175  1  0.944326  0.601517  0.611547  1
  O  O176  1  0.943441  0.884254  0.160824  1
  O  O177  1  0.943441  0.115746  0.660824  1
  O  O178  1  0.312735  0.898149  0.477941  1
  O  O179  1  0.312735  0.101851  0.977941  1
  O  O180  1  0.295565  0.282548  0.103548  1
  O  O181  1  0.295565  0.717452  0.603548  1
  O  O182  1  0.624279  0.777794  0.083702  1
  O  O183  1  0.624279  0.222206  0.583702  1
  O  O184  1  0.255519  0.382060  0.731032  1
  O  O185  1  0.255519  0.617940  0.231032  1
  O  O186  1  0.564801  0.489186  0.853935  1
  O  O187  1  0.564801  0.510814  0.353935  1
  O  O188  1  0.591957  0.836062  0.261214  1
  O  O189  1  0.591957  0.163938  0.761214  1
  O  O190  1  0.341977  0.598047  0.954555  1
  O  O191  1  0.341977  0.401953  0.454555  1
  O  O192  1  0.283967  0.405655  0.928320  1
  O  O193  1  0.283967  0.594345  0.428320  1
  O  O194  1  0.555658  0.484746  0.052344  1
  O  O195  1  0.555658  0.515254  0.552344  1
  O  O196  1  0.236701  0.499841  0.080075  1
  O  O197  1  0.236701  0.500159  0.580075  1
  O  O198  1  0.170424  0.975233  0.160880  1
  O  O199  1  0.170424  0.024767  0.660880  1
  O  O200  1  0.630455  0.632299  0.973231  1
  O  O201  1  0.630455  0.367701  0.473231  1
  O  O202  1  0.758708  0.019571  0.933251  1
  O  O203  1  0.758708  0.980429  0.433251  1
  O  O204  1  0.911896  0.664823  0.994084  1
  O  O205  1  0.911896  0.335177  0.494084  1
  O  O206  1  0.314250  0.102225  0.470359  1
  O  O207  1  0.314250  0.897775  0.970359  1
