# generated using pymatgen
data_Sc6Al16Rh7
_symmetry_space_group_name_H-M   'P 1'
_cell_length_a   8.76210063
_cell_length_b   8.76210063
_cell_length_c   8.76210063
_cell_angle_alpha   60.00000000
_cell_angle_beta   60.00000000
_cell_angle_gamma   60.00000000
_symmetry_Int_Tables_number   1
_chemical_formula_structural   Sc6Al16Rh7
_chemical_formula_sum   'Sc6 Al16 Rh7'
_cell_volume   475.67432588
_cell_formula_units_Z   1
loop_
 _symmetry_equiv_pos_site_id
 _symmetry_equiv_pos_as_xyz
  1  'x, y, z'
loop_
 _atom_site_type_symbol
 _atom_site_label
 _atom_site_symmetry_multiplicity
 _atom_site_fract_x
 _atom_site_fract_y
 _atom_site_fract_z
 _atom_site_occupancy
  Sc  Sc0  1  0.704471  0.295529  0.295529  1
  Sc  Sc1  1  0.704471  0.295529  0.704471  1
  Sc  Sc2  1  0.704471  0.704471  0.295529  1
  Sc  Sc3  1  0.295529  0.704471  0.704471  1
  Sc  Sc4  1  0.295529  0.704471  0.295529  1
  Sc  Sc5  1  0.295529  0.295529  0.704471  1
  Al  Al6  1  0.642100  0.119300  0.119300  1
  Al  Al7  1  0.119300  0.642100  0.119300  1
  Al  Al8  1  0.119300  0.119300  0.642100  1
  Al  Al9  1  0.119300  0.119300  0.119300  1
  Al  Al10  1  0.357900  0.880700  0.880700  1
  Al  Al11  1  0.880700  0.357900  0.880700  1
  Al  Al12  1  0.880700  0.880700  0.357900  1
  Al  Al13  1  0.880700  0.880700  0.880700  1
  Al  Al14  1  0.001978  0.332674  0.332674  1
  Al  Al15  1  0.332674  0.001978  0.332674  1
  Al  Al16  1  0.332674  0.332674  0.001978  1
  Al  Al17  1  0.332674  0.332674  0.332674  1
  Al  Al18  1  0.998022  0.667326  0.667326  1
  Al  Al19  1  0.667326  0.998022  0.667326  1
  Al  Al20  1  0.667326  0.667326  0.998022  1
  Al  Al21  1  0.667326  0.667326  0.667326  1
  Rh  Rh22  1  -0.000000  -0.000000  -0.000000  1
  Rh  Rh23  1  0.500000  -0.000000  -0.000000  1
  Rh  Rh24  1  0.500000  -0.000000  0.500000  1
  Rh  Rh25  1  0.500000  0.500000  -0.000000  1
  Rh  Rh26  1  -0.000000  0.500000  0.500000  1
  Rh  Rh27  1  -0.000000  0.500000  -0.000000  1
  Rh  Rh28  1  -0.000000  -0.000000  0.500000  1
