# generated using pymatgen
data_U2(Fe7B2)3
_symmetry_space_group_name_H-M   'P 1'
_cell_length_a   7.58052196
_cell_length_b   7.58052196
_cell_length_c   7.58052196
_cell_angle_alpha   60.00000000
_cell_angle_beta   60.00000000
_cell_angle_gamma   60.00000000
_symmetry_Int_Tables_number   1
_chemical_formula_structural   U2(Fe7B2)3
_chemical_formula_sum   'U2 Fe21 B6'
_cell_volume   308.02242244
_cell_formula_units_Z   1
loop_
 _symmetry_equiv_pos_site_id
 _symmetry_equiv_pos_as_xyz
  1  'x, y, z'
loop_
 _atom_site_type_symbol
 _atom_site_label
 _atom_site_symmetry_multiplicity
 _atom_site_fract_x
 _atom_site_fract_y
 _atom_site_fract_z
 _atom_site_occupancy
  U  U0  1  0.750000  0.750000  0.750000  1
  U  U1  1  0.250000  0.250000  0.250000  1
  Fe  Fe2  1  0.000000  -0.000000  0.663333  1
  Fe  Fe3  1  -0.000000  0.000000  0.336667  1
  Fe  Fe4  1  0.336667  0.663333  0.000000  1
  Fe  Fe5  1  0.663333  0.336667  0.000000  1
  Fe  Fe6  1  -0.000000  0.663333  0.000000  1
  Fe  Fe7  1  0.663333  -0.000000  0.336667  1
  Fe  Fe8  1  0.000000  0.336667  -0.000000  1
  Fe  Fe9  1  0.336667  0.000000  0.663333  1
  Fe  Fe10  1  0.663333  0.000000  -0.000000  1
  Fe  Fe11  1  0.336667  -0.000000  0.000000  1
  Fe  Fe12  1  0.000000  0.663333  0.336667  1
  Fe  Fe13  1  -0.000000  0.336667  0.663333  1
  Fe  Fe14  1  0.618764  0.618764  0.618764  1
  Fe  Fe15  1  0.381236  0.381236  0.381236  1
  Fe  Fe16  1  0.143707  0.618764  0.618764  1
  Fe  Fe17  1  0.618764  0.143707  0.618764  1
  Fe  Fe18  1  0.856293  0.381236  0.381236  1
  Fe  Fe19  1  0.381236  0.856293  0.381236  1
  Fe  Fe20  1  0.618764  0.618764  0.143707  1
  Fe  Fe21  1  0.381236  0.381236  0.856293  1
  Fe  Fe22  1  0.000000  -0.000000  -0.000000  1
  B  B23  1  0.727245  0.727245  0.272755  1
  B  B24  1  0.272755  0.272755  0.727245  1
  B  B25  1  0.727245  0.272755  0.727245  1
  B  B26  1  0.272755  0.727245  0.272755  1
  B  B27  1  0.272755  0.727245  0.727245  1
  B  B28  1  0.727245  0.272755  0.272755  1
