# generated using pymatgen
data_UAl2Cu
_symmetry_space_group_name_H-M   'P 1'
_cell_length_a   4.68379293
_cell_length_b   4.68874808
_cell_length_c   4.70092407
_cell_angle_alpha   119.90577163
_cell_angle_beta   119.87953015
_cell_angle_gamma   89.99999657
_symmetry_Int_Tables_number   1
_chemical_formula_structural   UAl2Cu
_chemical_formula_sum   'U1 Al2 Cu1'
_cell_volume   73.23625018
_cell_formula_units_Z   1
loop_
 _symmetry_equiv_pos_site_id
 _symmetry_equiv_pos_as_xyz
  1  'x, y, z'
loop_
 _atom_site_type_symbol
 _atom_site_label
 _atom_site_symmetry_multiplicity
 _atom_site_fract_x
 _atom_site_fract_y
 _atom_site_fract_z
 _atom_site_occupancy
  U  U0  1  0.000000  0.000000  0.000000  1
  Al  Al1  1  0.750040  0.250079  0.500081  1
  Al  Al2  1  0.249960  0.749921  0.499919  1
  Cu  Cu3  1  0.500000  0.500000  0.000000  1
