# generated using pymatgen
data_Pr2Ga3Cu
_symmetry_space_group_name_H-M   'P 1'
_cell_length_a   4.47621388
_cell_length_b   4.47621388
_cell_length_c   7.69897907
_cell_angle_alpha   90.00883494
_cell_angle_beta   89.99116506
_cell_angle_gamma   120.03584324
_symmetry_Int_Tables_number   1
_chemical_formula_structural   Pr2Ga3Cu
_chemical_formula_sum   'Pr2 Ga3 Cu1'
_cell_volume   133.54525159
_cell_formula_units_Z   1
loop_
 _symmetry_equiv_pos_site_id
 _symmetry_equiv_pos_as_xyz
  1  'x, y, z'
loop_
 _atom_site_type_symbol
 _atom_site_label
 _atom_site_symmetry_multiplicity
 _atom_site_fract_x
 _atom_site_fract_y
 _atom_site_fract_z
 _atom_site_occupancy
  Pr  Pr0  1  0.999916  0.000084  0.732110  1
  Pr  Pr1  1  0.000113  0.999887  0.261847  1
  Ga  Ga2  1  0.333299  0.666701  0.482946  1
  Ga  Ga3  1  0.333273  0.666727  0.041220  1
  Ga  Ga4  1  0.666709  0.333291  0.955735  1
  Cu  Cu5  1  0.666689  0.333311  0.526142  1
