# generated using pymatgen
data_LiLuTl2
_symmetry_space_group_name_H-M   'P 1'
_cell_length_a   5.13460367
_cell_length_b   5.13465929
_cell_length_c   5.13452773
_cell_angle_alpha   59.99987913
_cell_angle_beta   59.99975463
_cell_angle_gamma   59.99952180
_symmetry_Int_Tables_number   1
_chemical_formula_structural   LiLuTl2
_chemical_formula_sum   'Li1 Lu1 Tl2'
_cell_volume   95.71969192
_cell_formula_units_Z   1
loop_
 _symmetry_equiv_pos_site_id
 _symmetry_equiv_pos_as_xyz
  1  'x, y, z'
loop_
 _atom_site_type_symbol
 _atom_site_label
 _atom_site_symmetry_multiplicity
 _atom_site_fract_x
 _atom_site_fract_y
 _atom_site_fract_z
 _atom_site_occupancy
  Li  Li0  1  0.250000  0.250001  0.250002  1
  Lu  Lu1  1  0.750000  0.749996  0.750003  1
  Tl  Tl2  1  0.500000  0.500005  0.499996  1
  Tl  Tl3  1  -0.000000  -0.000002  -0.000001  1
