# generated using pymatgen
data_Mo2Se3S
_symmetry_space_group_name_H-M   'P 1'
_cell_length_a   3.28754416
_cell_length_b   3.28750702
_cell_length_c   37.30858275
_cell_angle_alpha   90.00008240
_cell_angle_beta   90.00000000
_cell_angle_gamma   120.00037374
_symmetry_Int_Tables_number   1
_chemical_formula_structural   Mo2Se3S
_chemical_formula_sum   'Mo4 Se6 S2'
_cell_volume   349.20144452
_cell_formula_units_Z   2
loop_
 _symmetry_equiv_pos_site_id
 _symmetry_equiv_pos_as_xyz
  1  'x, y, z'
loop_
 _atom_site_type_symbol
 _atom_site_label
 _atom_site_symmetry_multiplicity
 _atom_site_fract_x
 _atom_site_fract_y
 _atom_site_fract_z
 _atom_site_occupancy
  Mo  Mo0  1  0.333308  0.666615  0.093917  1
  Mo  Mo1  1  0.333310  0.666620  0.469633  1
  Mo  Mo2  1  0.666688  0.333377  0.281777  1
  Mo  Mo3  1  0.666689  0.333379  0.657552  1
  Se  Se4  1  0.333351  0.666703  0.702750  1
  Se  Se5  1  0.666647  0.333293  0.048719  1
  Se  Se6  1  0.666649  0.333296  0.424447  1
  Se  Se7  1  0.666647  0.333292  0.139144  1
  Se  Se8  1  0.666648  0.333295  0.514869  1
  Se  Se9  1  0.333351  0.666703  0.612327  1
  S  S10  1  0.333358  0.666717  0.322978  1
  S  S11  1  0.333354  0.666709  0.240634  1
