# generated using pymatgen
data_Pr6Mg23C
_symmetry_space_group_name_H-M   'P 1'
_cell_length_a   10.18576350
_cell_length_b   10.18576350
_cell_length_c   10.18576350
_cell_angle_alpha   60.00000000
_cell_angle_beta   60.00000000
_cell_angle_gamma   60.00000000
_symmetry_Int_Tables_number   1
_chemical_formula_structural   Pr6Mg23C
_chemical_formula_sum   'Pr6 Mg23 C1'
_cell_volume   747.24972927
_cell_formula_units_Z   1
loop_
 _symmetry_equiv_pos_site_id
 _symmetry_equiv_pos_as_xyz
  1  'x, y, z'
loop_
 _atom_site_type_symbol
 _atom_site_label
 _atom_site_symmetry_multiplicity
 _atom_site_fract_x
 _atom_site_fract_y
 _atom_site_fract_z
 _atom_site_occupancy
  Pr  Pr0  1  0.814809  0.185191  0.185191  1
  Pr  Pr1  1  0.814809  0.185191  0.814809  1
  Pr  Pr2  1  0.814809  0.814809  0.185191  1
  Pr  Pr3  1  0.185191  0.814809  0.814809  1
  Pr  Pr4  1  0.185191  0.814809  0.185191  1
  Pr  Pr5  1  0.185191  0.185191  0.814809  1
  Mg  Mg6  1  0.486945  0.171018  0.171018  1
  Mg  Mg7  1  0.171018  0.486945  0.171018  1
  Mg  Mg8  1  0.171018  0.171018  0.486945  1
  Mg  Mg9  1  0.171018  0.171018  0.171018  1
  Mg  Mg10  1  0.513055  0.828982  0.828982  1
  Mg  Mg11  1  0.828982  0.513055  0.828982  1
  Mg  Mg12  1  0.828982  0.828982  0.513055  1
  Mg  Mg13  1  0.828982  0.828982  0.828982  1
  Mg  Mg14  1  0.862618  0.379127  0.379127  1
  Mg  Mg15  1  0.379127  0.862618  0.379127  1
  Mg  Mg16  1  0.379127  0.379127  0.862618  1
  Mg  Mg17  1  0.379127  0.379127  0.379127  1
  Mg  Mg18  1  0.137382  0.620873  0.620873  1
  Mg  Mg19  1  0.620873  0.137382  0.620873  1
  Mg  Mg20  1  0.620873  0.620873  0.137382  1
  Mg  Mg21  1  0.620873  0.620873  0.620873  1
  Mg  Mg22  1  0.500000  -0.000000  -0.000000  1
  Mg  Mg23  1  0.500000  -0.000000  0.500000  1
  Mg  Mg24  1  0.500000  0.500000  -0.000000  1
  Mg  Mg25  1  -0.000000  0.500000  0.500000  1
  Mg  Mg26  1  -0.000000  0.500000  -0.000000  1
  Mg  Mg27  1  0.000000  -0.000000  0.500000  1
  Mg  Mg28  1  0.500000  0.500000  0.500000  1
  C  C29  1  0.000000  -0.000000  -0.000000  1
