# generated using pymatgen
data_LaSmB12
_symmetry_space_group_name_H-M   'P 1'
_cell_length_a   5.85229179
_cell_length_b   5.85229179
_cell_length_c   5.85229179
_cell_angle_alpha   60.00000000
_cell_angle_beta   90.00000000
_cell_angle_gamma   120.00000000
_symmetry_Int_Tables_number   1
_chemical_formula_structural   LaSmB12
_chemical_formula_sum   'La1 Sm1 B12'
_cell_volume   141.73036863
_cell_formula_units_Z   1
loop_
 _symmetry_equiv_pos_site_id
 _symmetry_equiv_pos_as_xyz
  1  'x, y, z'
loop_
 _atom_site_type_symbol
 _atom_site_label
 _atom_site_symmetry_multiplicity
 _atom_site_fract_x
 _atom_site_fract_y
 _atom_site_fract_z
 _atom_site_occupancy
  La  La0  1  0.500000  0.000000  0.500000  1
  Sm  Sm1  1  -0.000000  0.000000  0.000000  1
  B  B2  1  0.599654  0.500000  0.900346  1
  B  B3  1  0.099654  0.500000  0.400346  1
  B  B4  1  0.900346  0.500000  0.900346  1
  B  B5  1  0.400346  0.500000  0.400346  1
  B  B6  1  0.599654  0.199308  0.900346  1
  B  B7  1  0.099654  0.199308  0.400346  1
  B  B8  1  0.599654  0.500000  0.599654  1
  B  B9  1  0.099654  0.500000  0.099654  1
  B  B10  1  0.900346  0.800692  0.599654  1
  B  B11  1  0.400346  0.800692  0.099654  1
  B  B12  1  0.900346  0.500000  0.599654  1
  B  B13  1  0.400346  0.500000  0.099654  1
