# generated using pymatgen
data_Mg(MoO3)2
_symmetry_space_group_name_H-M   'P 1'
_cell_length_a   5.26504381
_cell_length_b   5.42440505
_cell_length_c   7.57590715
_cell_angle_alpha   90.00549995
_cell_angle_beta   90.72968154
_cell_angle_gamma   89.99834608
_symmetry_Int_Tables_number   1
_chemical_formula_structural   Mg(MoO3)2
_chemical_formula_sum   'Mg2 Mo4 O12'
_cell_volume   216.34831771
_cell_formula_units_Z   2
loop_
 _symmetry_equiv_pos_site_id
 _symmetry_equiv_pos_as_xyz
  1  'x, y, z'
loop_
 _atom_site_type_symbol
 _atom_site_label
 _atom_site_symmetry_multiplicity
 _atom_site_fract_x
 _atom_site_fract_y
 _atom_site_fract_z
 _atom_site_occupancy
  Mg  Mg0  1  0.514009  0.556032  0.248863  1
  Mg  Mg1  1  0.013954  0.944004  0.748679  1
  Mo  Mo2  1  0.506628  0.997299  0.994515  1
  Mo  Mo3  1  0.994478  0.486031  0.996832  1
  Mo  Mo4  1  0.006823  0.502643  0.494413  1
  Mo  Mo5  1  0.494681  0.013952  0.496899  1
  O  O6  1  0.671370  0.321816  0.434140  1
  O  O7  1  0.167474  0.186432  0.563256  1
  O  O8  1  0.797509  0.789487  0.055982  1
  O  O9  1  0.304487  0.714281  0.954418  1
  O  O10  1  0.297810  0.710365  0.555793  1
  O  O11  1  0.804761  0.785837  0.454471  1
  O  O12  1  0.171137  0.178167  0.934092  1
  O  O13  1  0.667334  0.313575  0.063225  1
  O  O14  1  0.134379  0.467720  0.245150  1
  O  O15  1  0.634286  0.032231  0.745217  1
  O  O16  1  0.420544  0.947753  0.257004  1
  O  O17  1  0.920516  0.552435  0.756945  1
