# generated using pymatgen
data_Zr6Al16Rh7
_symmetry_space_group_name_H-M   'P 1'
_cell_length_a   8.75156489
_cell_length_b   8.75156489
_cell_length_c   8.75156489
_cell_angle_alpha   60.00000000
_cell_angle_beta   60.00000000
_cell_angle_gamma   60.00000000
_symmetry_Int_Tables_number   1
_chemical_formula_structural   Zr6Al16Rh7
_chemical_formula_sum   'Zr6 Al16 Rh7'
_cell_volume   473.96050560
_cell_formula_units_Z   1
loop_
 _symmetry_equiv_pos_site_id
 _symmetry_equiv_pos_as_xyz
  1  'x, y, z'
loop_
 _atom_site_type_symbol
 _atom_site_label
 _atom_site_symmetry_multiplicity
 _atom_site_fract_x
 _atom_site_fract_y
 _atom_site_fract_z
 _atom_site_occupancy
  Zr  Zr0  1  0.689872  0.310128  0.310128  1
  Zr  Zr1  1  0.689872  0.310128  0.689872  1
  Zr  Zr2  1  0.689872  0.689872  0.310128  1
  Zr  Zr3  1  0.310128  0.689872  0.689872  1
  Zr  Zr4  1  0.310128  0.689872  0.310128  1
  Zr  Zr5  1  0.310128  0.310128  0.689872  1
  Al  Al6  1  0.640442  0.119853  0.119853  1
  Al  Al7  1  0.119853  0.640442  0.119853  1
  Al  Al8  1  0.119853  0.119853  0.640442  1
  Al  Al9  1  0.119853  0.119853  0.119853  1
  Al  Al10  1  0.359558  0.880147  0.880147  1
  Al  Al11  1  0.880147  0.359558  0.880147  1
  Al  Al12  1  0.880147  0.880147  0.359558  1
  Al  Al13  1  0.880147  0.880147  0.880147  1
  Al  Al14  1  0.988821  0.337060  0.337060  1
  Al  Al15  1  0.337060  0.988821  0.337060  1
  Al  Al16  1  0.337060  0.337060  0.988821  1
  Al  Al17  1  0.337060  0.337060  0.337060  1
  Al  Al18  1  0.011179  0.662940  0.662940  1
  Al  Al19  1  0.662940  0.011179  0.662940  1
  Al  Al20  1  0.662940  0.662940  0.011179  1
  Al  Al21  1  0.662940  0.662940  0.662940  1
  Rh  Rh22  1  -0.000000  0.000000  -0.000000  1
  Rh  Rh23  1  0.500000  0.000000  -0.000000  1
  Rh  Rh24  1  0.500000  0.000000  0.500000  1
  Rh  Rh25  1  0.500000  0.500000  -0.000000  1
  Rh  Rh26  1  -0.000000  0.500000  0.500000  1
  Rh  Rh27  1  -0.000000  0.500000  -0.000000  1
  Rh  Rh28  1  -0.000000  0.000000  0.500000  1
