# generated using pymatgen
data_MoW3Se8
_symmetry_space_group_name_H-M   'P 1'
_cell_length_a   3.32134746
_cell_length_b   3.32130712
_cell_length_c   37.87051235
_cell_angle_alpha   90.00013675
_cell_angle_beta   90.00000000
_cell_angle_gamma   120.00040182
_symmetry_Int_Tables_number   1
_chemical_formula_structural   MoW3Se8
_chemical_formula_sum   'Mo1 W3 Se8'
_cell_volume   361.78736976
_cell_formula_units_Z   1
loop_
 _symmetry_equiv_pos_site_id
 _symmetry_equiv_pos_as_xyz
  1  'x, y, z'
loop_
 _atom_site_type_symbol
 _atom_site_label
 _atom_site_symmetry_multiplicity
 _atom_site_fract_x
 _atom_site_fract_y
 _atom_site_fract_z
 _atom_site_occupancy
  Mo  Mo0  1  0.333309  0.666618  0.093920  1
  W  W1  1  0.333310  0.666620  0.469656  1
  W  W2  1  0.666688  0.333377  0.281799  1
  W  W3  1  0.666692  0.333384  0.657541  1
  Se  Se4  1  0.333356  0.666713  0.326257  1
  Se  Se5  1  0.333359  0.666718  0.702000  1
  Se  Se6  1  0.666642  0.333284  0.049681  1
  Se  Se7  1  0.666636  0.333271  0.425215  1
  Se  Se8  1  0.666644  0.333287  0.138168  1
  Se  Se9  1  0.666648  0.333295  0.514098  1
  Se  Se10  1  0.333350  0.666701  0.237337  1
  Se  Se11  1  0.333365  0.666731  0.613076  1
