# generated using pymatgen
data_Fe(ClO7)2
_symmetry_space_group_name_H-M   'P 1'
_cell_length_a   4.93124867
_cell_length_b   7.80423755
_cell_length_c   7.78259888
_cell_angle_alpha   59.90797866
_cell_angle_beta   89.70198247
_cell_angle_gamma   90.00000000
_symmetry_Int_Tables_number   1
_chemical_formula_structural   Fe(ClO7)2
_chemical_formula_sum   'Fe1 Cl2 O14'
_cell_volume   259.13815376
_cell_formula_units_Z   1
loop_
 _symmetry_equiv_pos_site_id
 _symmetry_equiv_pos_as_xyz
  1  'x, y, z'
loop_
 _atom_site_type_symbol
 _atom_site_label
 _atom_site_symmetry_multiplicity
 _atom_site_fract_x
 _atom_site_fract_y
 _atom_site_fract_z
 _atom_site_occupancy
  Fe  Fe0  1  0.251339  0.000033  0.999935  1
  Cl  Cl1  1  0.504659  0.332755  0.334490  1
  Cl  Cl2  1  0.002166  0.666324  0.667352  1
  O  O3  1  0.004956  0.101166  0.097381  1
  O  O4  1  0.003030  0.098401  0.803198  1
  O  O5  1  0.004956  0.801453  0.097381  1
  O  O6  1  0.497716  0.899020  0.902425  1
  O  O7  1  0.499918  0.901679  0.196641  1
  O  O8  1  0.497716  0.198556  0.902425  1
  O  O9  1  0.594746  0.435398  0.436062  1
  O  O10  1  0.595081  0.436074  0.127853  1
  O  O11  1  0.594746  0.128539  0.436062  1
  O  O12  1  0.095497  0.564697  0.564044  1
  O  O13  1  0.094232  0.564150  0.871700  1
  O  O14  1  0.095497  0.871259  0.564044  1
  O  O15  1  0.204905  0.333578  0.332844  1
  O  O16  1  0.704839  0.666918  0.666164  1
