# generated using pymatgen
data_BaGa4Se7
_symmetry_space_group_name_H-M   'P 1'
_cell_length_a   6.65009719
_cell_length_b   7.77078620
_cell_length_c   12.82557847
_cell_angle_alpha   89.93251218
_cell_angle_beta   90.00000000
_cell_angle_gamma   90.00000000
_symmetry_Int_Tables_number   1
_chemical_formula_structural   BaGa4Se7
_chemical_formula_sum   'Ba2 Ga8 Se14'
_cell_volume   662.78033383
_cell_formula_units_Z   2
loop_
 _symmetry_equiv_pos_site_id
 _symmetry_equiv_pos_as_xyz
  1  'x, y, z'
loop_
 _atom_site_type_symbol
 _atom_site_label
 _atom_site_symmetry_multiplicity
 _atom_site_fract_x
 _atom_site_fract_y
 _atom_site_fract_z
 _atom_site_occupancy
  Ba  Ba0  1  0.353084  0.982250  0.453707  1
  Ba  Ba1  1  0.646916  0.482250  0.953707  1
  Ga  Ga2  1  0.166091  0.233493  0.759406  1
  Ga  Ga3  1  0.833909  0.733493  0.259406  1
  Ga  Ga4  1  0.008227  0.500041  0.499841  1
  Ga  Ga5  1  0.991773  0.000041  0.999841  1
  Ga  Ga6  1  0.158499  0.735302  0.772244  1
  Ga  Ga7  1  0.841501  0.235302  0.272244  1
  Ga  Ga8  1  0.363251  0.487783  0.274811  1
  Ga  Ga9  1  0.636749  0.987783  0.774811  1
  Se  Se10  1  0.149858  0.270181  0.945872  1
  Se  Se11  1  0.850142  0.770181  0.445872  1
  Se  Se12  1  0.361512  0.533722  0.460704  1
  Se  Se13  1  0.638488  0.033722  0.960704  1
  Se  Se14  1  0.108960  0.714150  0.957089  1
  Se  Se15  1  0.891040  0.214150  0.457089  1
  Se  Se16  1  0.017729  0.480272  0.190966  1
  Se  Se17  1  0.982271  0.980272  0.690966  1
  Se  Se18  1  0.509466  0.724453  0.177273  1
  Se  Se19  1  0.490534  0.224453  0.677273  1
  Se  Se20  1  0.495711  0.211318  0.220292  1
  Se  Se21  1  0.504289  0.711318  0.720292  1
  Se  Se22  1  0.029100  0.987155  0.195756  1
  Se  Se23  1  0.970900  0.487155  0.695756  1
