# generated using pymatgen
data_AcYbAu2
_symmetry_space_group_name_H-M   'P 1'
_cell_length_a   5.33701079
_cell_length_b   5.33701079
_cell_length_c   5.33701079
_cell_angle_alpha   60.00000000
_cell_angle_beta   60.00000000
_cell_angle_gamma   60.00000000
_symmetry_Int_Tables_number   1
_chemical_formula_structural   AcYbAu2
_chemical_formula_sum   'Ac1 Yb1 Au2'
_cell_volume   107.49276750
_cell_formula_units_Z   1
loop_
 _symmetry_equiv_pos_site_id
 _symmetry_equiv_pos_as_xyz
  1  'x, y, z'
loop_
 _atom_site_type_symbol
 _atom_site_label
 _atom_site_symmetry_multiplicity
 _atom_site_fract_x
 _atom_site_fract_y
 _atom_site_fract_z
 _atom_site_occupancy
  Ac  Ac0  1  0.250000  0.250000  0.250000  1
  Yb  Yb1  1  0.749999  0.749999  0.749999  1
  Au  Au2  1  0.500001  0.500001  0.500001  1
  Au  Au3  1  -0.000000  0.000000  0.000000  1
