# generated using pymatgen
data_TeWS
_symmetry_space_group_name_H-M   'P 1'
_cell_length_a   3.35983795
_cell_length_b   3.35984604
_cell_length_c   39.38924489
_cell_angle_alpha   90.00190429
_cell_angle_beta   90.00000000
_cell_angle_gamma   119.99992026
_symmetry_Int_Tables_number   1
_chemical_formula_structural   TeWS
_chemical_formula_sum   'Te4 W4 S4'
_cell_volume   385.07590397
_cell_formula_units_Z   4
loop_
 _symmetry_equiv_pos_site_id
 _symmetry_equiv_pos_as_xyz
  1  'x, y, z'
loop_
 _atom_site_type_symbol
 _atom_site_label
 _atom_site_symmetry_multiplicity
 _atom_site_fract_x
 _atom_site_fract_y
 _atom_site_fract_z
 _atom_site_occupancy
  Te  Te0  1  0.333382  0.666766  0.707030  1
  Te  Te1  1  0.666657  0.333314  0.420328  1
  Te  Te2  1  0.666674  0.333347  0.516780  1
  Te  Te3  1  0.333319  0.666640  0.610576  1
  W  W4  1  0.333296  0.666593  0.093914  1
  W  W5  1  0.333330  0.666661  0.468492  1
  W  W6  1  0.666689  0.333378  0.281635  1
  W  W7  1  0.666683  0.333366  0.658812  1
  S  S8  1  0.333364  0.666729  0.320198  1
  S  S9  1  0.666616  0.333230  0.055393  1
  S  S10  1  0.666645  0.333288  0.132468  1
  S  S11  1  0.333344  0.666688  0.243121  1
