# generated using pymatgen
data_Rb2ZnBr4
_symmetry_space_group_name_H-M   'P 1'
_cell_length_a   15.80024030
_cell_length_b   15.81079109
_cell_length_c   29.67256471
_cell_angle_alpha   90.00000000
_cell_angle_beta   90.00000000
_cell_angle_gamma   119.99031081
_symmetry_Int_Tables_number   1
_chemical_formula_structural   Rb2ZnBr4
_chemical_formula_sum   'Rb48 Zn24 Br96'
_cell_volume   6420.15337805
_cell_formula_units_Z   24
loop_
 _symmetry_equiv_pos_site_id
 _symmetry_equiv_pos_as_xyz
  1  'x, y, z'
loop_
 _atom_site_type_symbol
 _atom_site_label
 _atom_site_symmetry_multiplicity
 _atom_site_fract_x
 _atom_site_fract_y
 _atom_site_fract_z
 _atom_site_occupancy
  Rb  Rb0  1  0.451735  0.171210  0.247190  1
  Rb  Rb1  1  0.451735  0.671210  0.752810  1
  Rb  Rb2  1  0.976965  0.165575  0.914558  1
  Rb  Rb3  1  0.976965  0.665575  0.085442  1
  Rb  Rb4  1  0.024862  0.815418  0.253927  1
  Rb  Rb5  1  0.024862  0.315418  0.746073  1
  Rb  Rb6  1  0.965264  0.669316  0.419548  1
  Rb  Rb7  1  0.965264  0.169316  0.580452  1
  Rb  Rb8  1  0.469906  0.672510  0.087670  1
  Rb  Rb9  1  0.469906  0.172510  0.912330  1
  Rb  Rb10  1  0.317185  0.400017  0.873655  1
  Rb  Rb11  1  0.317185  0.900017  0.126345  1
  Rb  Rb12  1  0.468172  0.668562  0.422252  1
  Rb  Rb13  1  0.468172  0.168562  0.577748  1
  Rb  Rb14  1  0.949779  0.168767  0.245117  1
  Rb  Rb15  1  0.949779  0.668767  0.754883  1
  Rb  Rb16  1  0.551754  0.313266  0.412962  1
  Rb  Rb17  1  0.551754  0.813266  0.587038  1
  Rb  Rb18  1  0.816913  0.408106  0.209675  1
  Rb  Rb19  1  0.816913  0.908106  0.790325  1
  Rb  Rb20  1  0.192643  0.097667  0.042091  1
  Rb  Rb21  1  0.192643  0.597667  0.957909  1
  Rb  Rb22  1  0.842274  0.901208  0.456812  1
  Rb  Rb23  1  0.842274  0.401208  0.543188  1
  Rb  Rb24  1  0.034145  0.316148  0.078595  1
  Rb  Rb25  1  0.034145  0.816148  0.921405  1
  Rb  Rb26  1  0.328403  0.889869  0.457877  1
  Rb  Rb27  1  0.328403  0.389869  0.542123  1
  Rb  Rb28  1  0.522246  0.815862  0.253524  1
  Rb  Rb29  1  0.522246  0.315862  0.746476  1
  Rb  Rb30  1  0.314731  0.391130  0.208458  1
  Rb  Rb31  1  0.314731  0.891130  0.791542  1
  Rb  Rb32  1  0.166516  0.583178  0.290378  1
  Rb  Rb33  1  0.166516  0.083178  0.709622  1
  Rb  Rb34  1  0.042521  0.319773  0.413942  1
  Rb  Rb35  1  0.042521  0.819773  0.586058  1
  Rb  Rb36  1  0.547193  0.817475  0.920493  1
  Rb  Rb37  1  0.547193  0.317475  0.079507  1
  Rb  Rb38  1  0.669288  0.582480  0.626934  1
  Rb  Rb39  1  0.669288  0.082480  0.373066  1
  Rb  Rb40  1  0.669815  0.082250  0.042537  1
  Rb  Rb41  1  0.669815  0.582250  0.957463  1
  Rb  Rb42  1  0.654032  0.587817  0.292453  1
  Rb  Rb43  1  0.654032  0.087817  0.707547  1
  Rb  Rb44  1  0.170463  0.097942  0.374775  1
  Rb  Rb45  1  0.170463  0.597942  0.625225  1
  Rb  Rb46  1  0.829973  0.890654  0.124865  1
  Rb  Rb47  1  0.829973  0.390654  0.875135  1
  Zn  Zn48  1  0.334091  0.414977  0.008972  1
  Zn  Zn49  1  0.334091  0.914977  0.991028  1
  Zn  Zn50  1  0.839636  0.910976  0.993001  1
  Zn  Zn51  1  0.839636  0.410976  0.006999  1
  Zn  Zn52  1  0.660956  0.577409  0.156235  1
  Zn  Zn53  1  0.660956  0.077409  0.843765  1
  Zn  Zn54  1  0.156428  0.568245  0.158090  1
  Zn  Zn55  1  0.156428  0.068245  0.841910  1
  Zn  Zn56  1  0.667504  0.070999  0.175386  1
  Zn  Zn57  1  0.667504  0.570999  0.824614  1
  Zn  Zn58  1  0.169436  0.072011  0.176432  1
  Zn  Zn59  1  0.169436  0.572011  0.823568  1
  Zn  Zn60  1  0.828879  0.411965  0.342279  1
  Zn  Zn61  1  0.828879  0.911965  0.657721  1
  Zn  Zn62  1  0.335498  0.910425  0.324166  1
  Zn  Zn63  1  0.335498  0.410425  0.675834  1
  Zn  Zn64  1  0.843885  0.916983  0.323900  1
  Zn  Zn65  1  0.843885  0.416983  0.676100  1
  Zn  Zn66  1  0.328766  0.412785  0.343425  1
  Zn  Zn67  1  0.328766  0.912785  0.656575  1
  Zn  Zn68  1  0.165748  0.574110  0.491518  1
  Zn  Zn69  1  0.165748  0.074110  0.508482  1
  Zn  Zn70  1  0.667647  0.569522  0.492590  1
  Zn  Zn71  1  0.667647  0.069522  0.507410  1
  Br  Br72  1  0.173601  0.360801  0.974989  1
  Br  Br73  1  0.173601  0.860801  0.025011  1
  Br  Br74  1  0.394606  0.306489  0.986340  1
  Br  Br75  1  0.394606  0.806489  0.013660  1
  Br  Br76  1  0.440403  0.576252  0.975192  1
  Br  Br77  1  0.440403  0.076252  0.024808  1
  Br  Br78  1  0.319455  0.415703  0.089727  1
  Br  Br79  1  0.319455  0.915703  0.910273  1
  Br  Br80  1  0.829860  0.910880  0.911761  1
  Br  Br81  1  0.829860  0.410880  0.088239  1
  Br  Br82  1  0.678382  0.862401  0.025311  1
  Br  Br83  1  0.678382  0.362401  0.974689  1
  Br  Br84  1  0.954686  0.069168  0.026337  1
  Br  Br85  1  0.954686  0.569168  0.973663  1
  Br  Br86  1  0.884298  0.790397  0.016130  1
  Br  Br87  1  0.884298  0.290397  0.983870  1
  Br  Br88  1  0.565159  0.416547  0.191745  1
  Br  Br89  1  0.565159  0.916547  0.808255  1
  Br  Br90  1  0.641101  0.571086  0.075621  1
  Br  Br91  1  0.641101  0.071086  0.924379  1
  Br  Br92  1  0.605561  0.685241  0.186908  1
  Br  Br93  1  0.605561  0.185241  0.813092  1
  Br  Br94  1  0.829408  0.640761  0.179912  1
  Br  Br95  1  0.829408  0.140761  0.820088  1
  Br  Br96  1  0.319787  0.622476  0.187694  1
  Br  Br97  1  0.319787  0.122476  0.812306  1
  Br  Br98  1  0.101125  0.676232  0.188582  1
  Br  Br99  1  0.101125  0.176232  0.811418  1
  Br  Br100  1  0.048691  0.405437  0.189231  1
  Br  Br101  1  0.048691  0.905437  0.810769  1
  Br  Br102  1  0.151687  0.574126  0.077009  1
  Br  Br103  1  0.151687  0.074126  0.922991  1
  Br  Br104  1  0.822717  0.117732  0.137290  1
  Br  Br105  1  0.822717  0.617732  0.862710  1
  Br  Br106  1  0.614955  0.188365  0.158329  1
  Br  Br107  1  0.614955  0.688365  0.841671  1
  Br  Br108  1  0.690358  0.065260  0.255753  1
  Br  Br109  1  0.690358  0.565260  0.744247  1
  Br  Br110  1  0.548723  0.913332  0.141994  1
  Br  Br111  1  0.548723  0.413332  0.858006  1
  Br  Br112  1  0.332796  0.137663  0.142069  1
  Br  Br113  1  0.332796  0.637663  0.857931  1
  Br  Br114  1  0.069388  0.911587  0.141753  1
  Br  Br115  1  0.069388  0.411587  0.858247  1
  Br  Br116  1  0.104014  0.176416  0.155357  1
  Br  Br117  1  0.104014  0.676416  0.844643  1
  Br  Br118  1  0.189091  0.067911  0.256928  1
  Br  Br119  1  0.189091  0.567911  0.743072  1
  Br  Br120  1  0.940515  0.359676  0.314898  1
  Br  Br121  1  0.940515  0.859676  0.685102  1
  Br  Br122  1  0.878409  0.571317  0.307959  1
  Br  Br123  1  0.878409  0.071317  0.692041  1
  Br  Br124  1  0.665855  0.296760  0.313173  1
  Br  Br125  1  0.665855  0.796760  0.686827  1
  Br  Br126  1  0.820886  0.414019  0.423305  1
  Br  Br127  1  0.820886  0.914019  0.576695  1
  Br  Br128  1  0.440360  0.855796  0.360758  1
  Br  Br129  1  0.440360  0.355796  0.639242  1
  Br  Br130  1  0.165871  0.794394  0.341701  1
  Br  Br131  1  0.165871  0.294394  0.658299  1
  Br  Br132  1  0.381460  0.068223  0.358463  1
  Br  Br133  1  0.381460  0.568223  0.641537  1
  Br  Br134  1  0.364203  0.917872  0.243866  1
  Br  Br135  1  0.364203  0.417872  0.756134  1
  Br  Br136  1  0.673468  0.809811  0.344103  1
  Br  Br137  1  0.673468  0.309811  0.655897  1
  Br  Br138  1  0.868029  0.919691  0.243445  1
  Br  Br139  1  0.868029  0.419691  0.756555  1
  Br  Br140  1  0.946548  0.859878  0.359693  1
  Br  Br141  1  0.946548  0.359878  0.640307  1
  Br  Br142  1  0.896845  0.077156  0.358294  1
  Br  Br143  1  0.896845  0.577156  0.641706  1
  Br  Br144  1  0.654411  0.570335  0.411493  1
  Br  Br145  1  0.654411  0.070335  0.588507  1
  Br  Br146  1  0.623652  0.409522  0.524543  1
  Br  Br147  1  0.623652  0.909522  0.475457  1
  Br  Br148  1  0.555443  0.615515  0.527431  1
  Br  Br149  1  0.555443  0.115515  0.472569  1
  Br  Br150  1  0.834425  0.688533  0.513960  1
  Br  Br151  1  0.834425  0.188533  0.486040  1
  Br  Br152  1  0.155280  0.574303  0.410530  1
  Br  Br153  1  0.155280  0.074303  0.589470  1
  Br  Br154  1  0.110078  0.413742  0.525605  1
  Br  Br155  1  0.110078  0.913742  0.474395  1
  Br  Br156  1  0.059639  0.631785  0.522833  1
  Br  Br157  1  0.059639  0.131785  0.477167  1
  Br  Br158  1  0.333226  0.683118  0.516272  1
  Br  Br159  1  0.333226  0.183118  0.483728  1
  Br  Br160  1  0.313158  0.412341  0.424192  1
  Br  Br161  1  0.313158  0.912341  0.575808  1
  Br  Br162  1  0.165556  0.310573  0.311424  1
  Br  Br163  1  0.165556  0.810573  0.688576  1
  Br  Br164  1  0.431381  0.347985  0.317173  1
  Br  Br165  1  0.431381  0.847985  0.682827  1
  Br  Br166  1  0.398324  0.576671  0.310872  1
  Br  Br167  1  0.398324  0.076671  0.689128  1
