# generated using pymatgen
data_In(Cu3O4)2
_symmetry_space_group_name_H-M   'P 1'
_cell_length_a   6.53491477
_cell_length_b   6.53277934
_cell_length_c   6.53158597
_cell_angle_alpha   60.00011812
_cell_angle_beta   60.00927376
_cell_angle_gamma   59.98801209
_symmetry_Int_Tables_number   1
_chemical_formula_structural   In(Cu3O4)2
_chemical_formula_sum   'In1 Cu6 O8'
_cell_volume   197.16644917
_cell_formula_units_Z   1
loop_
 _symmetry_equiv_pos_site_id
 _symmetry_equiv_pos_as_xyz
  1  'x, y, z'
loop_
 _atom_site_type_symbol
 _atom_site_label
 _atom_site_symmetry_multiplicity
 _atom_site_fract_x
 _atom_site_fract_y
 _atom_site_fract_z
 _atom_site_occupancy
  In  In0  1  0.499996  0.500002  0.500009  1
  Cu  Cu1  1  0.499979  -0.000020  0.500052  1
  Cu  Cu2  1  0.499980  0.500030  0.999990  1
  Cu  Cu3  1  0.999992  0.500001  0.500007  1
  Cu  Cu4  1  0.999992  0.500027  0.000005  1
  Cu  Cu5  1  0.000002  0.000000  0.500016  1
  Cu  Cu6  1  0.499998  -0.000011  0.999992  1
  O  O7  1  0.642606  0.072280  0.642418  1
  O  O8  1  0.072214  0.642514  0.642690  1
  O  O9  1  0.642811  0.642456  0.072222  1
  O  O10  1  0.927791  0.357492  0.357286  1
  O  O11  1  0.642598  0.642635  0.642385  1
  O  O12  1  0.357429  0.357326  0.357602  1
  O  O13  1  0.357455  0.927761  0.357514  1
  O  O14  1  0.357160  0.357505  0.927812  1
