# generated using pymatgen
data_Rb3GaI6
_symmetry_space_group_name_H-M   'P 1'
_cell_length_a   8.88593782
_cell_length_b   8.88593836
_cell_length_c   8.88593833
_cell_angle_alpha   59.99999842
_cell_angle_beta   59.99999771
_cell_angle_gamma   59.99999786
_symmetry_Int_Tables_number   1
_chemical_formula_structural   Rb3GaI6
_chemical_formula_sum   'Rb3 Ga1 I6'
_cell_volume   496.12926272
_cell_formula_units_Z   1
loop_
 _symmetry_equiv_pos_site_id
 _symmetry_equiv_pos_as_xyz
  1  'x, y, z'
loop_
 _atom_site_type_symbol
 _atom_site_label
 _atom_site_symmetry_multiplicity
 _atom_site_fract_x
 _atom_site_fract_y
 _atom_site_fract_z
 _atom_site_occupancy
  Rb  Rb0  1  0.250000  0.250000  0.250000  1
  Rb  Rb1  1  0.750000  0.750000  0.750000  1
  Rb  Rb2  1  0.500000  0.500000  0.500000  1
  Ga  Ga3  1  0.000000  -0.000000  0.000000  1
  I  I4  1  0.223888  0.776112  0.223888  1
  I  I5  1  0.776112  0.776112  0.223888  1
  I  I6  1  0.776112  0.223888  0.776112  1
  I  I7  1  0.776112  0.223888  0.223888  1
  I  I8  1  0.223888  0.776112  0.776112  1
  I  I9  1  0.223888  0.223888  0.776112  1
