# generated using pymatgen
data_KInF3
_symmetry_space_group_name_H-M   'P 1'
_cell_length_a   6.60052960
_cell_length_b   6.60052973
_cell_length_c   6.60052972
_cell_angle_alpha   59.99999951
_cell_angle_beta   59.99999923
_cell_angle_gamma   59.99999925
_symmetry_Int_Tables_number   1
_chemical_formula_structural   KInF3
_chemical_formula_sum   'K2 In2 F6'
_cell_volume   203.33931728
_cell_formula_units_Z   2
loop_
 _symmetry_equiv_pos_site_id
 _symmetry_equiv_pos_as_xyz
  1  'x, y, z'
loop_
 _atom_site_type_symbol
 _atom_site_label
 _atom_site_symmetry_multiplicity
 _atom_site_fract_x
 _atom_site_fract_y
 _atom_site_fract_z
 _atom_site_occupancy
  K  K0  1  0.250000  0.250000  0.250000  1
  K  K1  1  0.750000  0.750000  0.750000  1
  In  In2  1  0.500000  0.500000  0.500000  1
  In  In3  1  0.000000  0.000000  -0.000000  1
  F  F4  1  0.226442  0.773558  0.226442  1
  F  F5  1  0.773558  0.773558  0.226442  1
  F  F6  1  0.773558  0.226442  0.773558  1
  F  F7  1  0.773558  0.226442  0.226442  1
  F  F8  1  0.226442  0.773558  0.773558  1
  F  F9  1  0.226442  0.226442  0.773558  1
