# generated using pymatgen
data_TeW2Se3
_symmetry_space_group_name_H-M   'P 1'
_cell_length_a   3.38044504
_cell_length_b   3.38038257
_cell_length_c   38.56044460
_cell_angle_alpha   90.00011574
_cell_angle_beta   90.00000000
_cell_angle_gamma   120.00061129
_symmetry_Int_Tables_number   1
_chemical_formula_structural   TeW2Se3
_chemical_formula_sum   'Te2 W4 Se6'
_cell_volume   381.60119212
_cell_formula_units_Z   2
loop_
 _symmetry_equiv_pos_site_id
 _symmetry_equiv_pos_as_xyz
  1  'x, y, z'
loop_
 _atom_site_type_symbol
 _atom_site_label
 _atom_site_symmetry_multiplicity
 _atom_site_fract_x
 _atom_site_fract_y
 _atom_site_fract_z
 _atom_site_occupancy
  Te  Te0  1  0.333351  0.666703  0.706600  1
  Te  Te1  1  0.333356  0.666713  0.608476  1
  W  W2  1  0.333308  0.666617  0.093924  1
  W  W3  1  0.333312  0.666624  0.469645  1
  W  W4  1  0.666688  0.333376  0.281795  1
  W  W5  1  0.666692  0.333384  0.657537  1
  Se  Se6  1  0.333352  0.666706  0.324934  1
  Se  Se7  1  0.666648  0.333294  0.050800  1
  Se  Se8  1  0.666650  0.333299  0.426531  1
  Se  Se9  1  0.666640  0.333279  0.137055  1
  Se  Se10  1  0.666649  0.333298  0.512788  1
  Se  Se11  1  0.333352  0.666706  0.238662  1
