# generated using pymatgen
data_Ta3Cr8Si
_symmetry_space_group_name_H-M   'P 1'
_cell_length_a   4.84607795
_cell_length_b   4.84628423
_cell_length_c   7.95610176
_cell_angle_alpha   90.00000000
_cell_angle_beta   89.99163145
_cell_angle_gamma   59.99859196
_symmetry_Int_Tables_number   1
_chemical_formula_structural   Ta3Cr8Si
_chemical_formula_sum   'Ta3 Cr8 Si1'
_cell_volume   161.81697174
_cell_formula_units_Z   1
loop_
 _symmetry_equiv_pos_site_id
 _symmetry_equiv_pos_as_xyz
  1  'x, y, z'
loop_
 _atom_site_type_symbol
 _atom_site_label
 _atom_site_symmetry_multiplicity
 _atom_site_fract_x
 _atom_site_fract_y
 _atom_site_fract_z
 _atom_site_occupancy
  Ta  Ta0  1  0.666670  0.666665  0.443165  1
  Ta  Ta1  1  0.666641  0.666680  0.060122  1
  Ta  Ta2  1  0.333274  0.333363  0.933156  1
  Cr  Cr3  1  0.000130  0.999935  0.500107  1
  Cr  Cr4  1  0.000144  0.999928  0.000805  1
  Cr  Cr5  1  0.830642  0.338732  0.746678  1
  Cr  Cr6  1  0.338702  0.830649  0.746705  1
  Cr  Cr7  1  0.830642  0.830626  0.746678  1
  Cr  Cr8  1  0.171323  0.657234  0.253062  1
  Cr  Cr9  1  0.657202  0.171399  0.253025  1
  Cr  Cr10  1  0.171323  0.171443  0.253062  1
  Si  Si11  1  0.333305  0.333347  0.563433  1
