# generated using pymatgen
data_Hf6Ga16Rh7
_symmetry_space_group_name_H-M   'P 1'
_cell_length_a   8.74306247
_cell_length_b   8.74306247
_cell_length_c   8.74306247
_cell_angle_alpha   60.00000000
_cell_angle_beta   60.00000000
_cell_angle_gamma   60.00000000
_symmetry_Int_Tables_number   1
_chemical_formula_structural   Hf6Ga16Rh7
_chemical_formula_sum   'Hf6 Ga16 Rh7'
_cell_volume   472.58044445
_cell_formula_units_Z   1
loop_
 _symmetry_equiv_pos_site_id
 _symmetry_equiv_pos_as_xyz
  1  'x, y, z'
loop_
 _atom_site_type_symbol
 _atom_site_label
 _atom_site_symmetry_multiplicity
 _atom_site_fract_x
 _atom_site_fract_y
 _atom_site_fract_z
 _atom_site_occupancy
  Hf  Hf0  1  0.690823  0.309177  0.309177  1
  Hf  Hf1  1  0.690823  0.309177  0.690823  1
  Hf  Hf2  1  0.690823  0.690823  0.309177  1
  Hf  Hf3  1  0.309177  0.690823  0.690823  1
  Hf  Hf4  1  0.309177  0.690823  0.309177  1
  Hf  Hf5  1  0.309177  0.309177  0.690823  1
  Ga  Ga6  1  0.634635  0.121788  0.121788  1
  Ga  Ga7  1  0.121788  0.634635  0.121788  1
  Ga  Ga8  1  0.121788  0.121788  0.634635  1
  Ga  Ga9  1  0.121788  0.121788  0.121788  1
  Ga  Ga10  1  0.365365  0.878212  0.878212  1
  Ga  Ga11  1  0.878212  0.365365  0.878212  1
  Ga  Ga12  1  0.878212  0.878212  0.365365  1
  Ga  Ga13  1  0.878212  0.878212  0.878212  1
  Ga  Ga14  1  0.969140  0.343620  0.343620  1
  Ga  Ga15  1  0.343620  0.969140  0.343620  1
  Ga  Ga16  1  0.343620  0.343620  0.969140  1
  Ga  Ga17  1  0.343620  0.343620  0.343620  1
  Ga  Ga18  1  0.030860  0.656380  0.656380  1
  Ga  Ga19  1  0.656380  0.030860  0.656380  1
  Ga  Ga20  1  0.656380  0.656380  0.030860  1
  Ga  Ga21  1  0.656380  0.656380  0.656380  1
  Rh  Rh22  1  0.000000  -0.000000  -0.000000  1
  Rh  Rh23  1  0.500000  -0.000000  -0.000000  1
  Rh  Rh24  1  0.500000  -0.000000  0.500000  1
  Rh  Rh25  1  0.500000  0.500000  -0.000000  1
  Rh  Rh26  1  0.000000  0.500000  0.500000  1
  Rh  Rh27  1  0.000000  0.500000  -0.000000  1
  Rh  Rh28  1  0.000000  -0.000000  0.500000  1
