# generated using pymatgen
data_Y2Ga3Ni
_symmetry_space_group_name_H-M   'P 1'
_cell_length_a   4.27725689
_cell_length_b   4.27725689
_cell_length_c   7.54461758
_cell_angle_alpha   90.00379504
_cell_angle_beta   89.99620496
_cell_angle_gamma   119.99980120
_symmetry_Int_Tables_number   1
_chemical_formula_structural   Y2Ga3Ni
_chemical_formula_sum   'Y2 Ga3 Ni1'
_cell_volume   119.53618758
_cell_formula_units_Z   1
loop_
 _symmetry_equiv_pos_site_id
 _symmetry_equiv_pos_as_xyz
  1  'x, y, z'
loop_
 _atom_site_type_symbol
 _atom_site_label
 _atom_site_symmetry_multiplicity
 _atom_site_fract_x
 _atom_site_fract_y
 _atom_site_fract_z
 _atom_site_occupancy
  Y  Y0  1  0.000008  0.999992  0.771403  1
  Y  Y1  1  0.000078  0.999922  0.237365  1
  Ga  Ga2  1  0.333259  0.666741  0.013034  1
  Ga  Ga3  1  0.333348  0.666652  0.461331  1
  Ga  Ga4  1  0.666632  0.333368  0.543616  1
  Ni  Ni5  1  0.666675  0.333325  0.973251  1
