# generated using pymatgen
data_Sm3(Ge3Pd10)2
_symmetry_space_group_name_H-M   'P 1'
_cell_length_a   8.87938939
_cell_length_b   8.87938939
_cell_length_c   8.87938939
_cell_angle_alpha   60.00000000
_cell_angle_beta   60.00000000
_cell_angle_gamma   60.00000000
_symmetry_Int_Tables_number   1
_chemical_formula_structural   Sm3(Ge3Pd10)2
_chemical_formula_sum   'Sm3 Ge6 Pd20'
_cell_volume   495.03317784
_cell_formula_units_Z   1
loop_
 _symmetry_equiv_pos_site_id
 _symmetry_equiv_pos_as_xyz
  1  'x, y, z'
loop_
 _atom_site_type_symbol
 _atom_site_label
 _atom_site_symmetry_multiplicity
 _atom_site_fract_x
 _atom_site_fract_y
 _atom_site_fract_z
 _atom_site_occupancy
  Sm  Sm0  1  0.750000  0.750000  0.750000  1
  Sm  Sm1  1  0.250000  0.250000  0.250000  1
  Sm  Sm2  1  -0.000000  0.000000  0.000000  1
  Ge  Ge3  1  0.730451  0.730451  0.269549  1
  Ge  Ge4  1  0.269549  0.269549  0.730451  1
  Ge  Ge5  1  0.730451  0.269549  0.730451  1
  Ge  Ge6  1  0.269549  0.730451  0.269549  1
  Ge  Ge7  1  0.269549  0.730451  0.730451  1
  Ge  Ge8  1  0.730451  0.269549  0.269549  1
  Pd  Pd9  1  0.618554  0.618554  0.618554  1
  Pd  Pd10  1  0.381446  0.381446  0.381446  1
  Pd  Pd11  1  0.144338  0.618554  0.618554  1
  Pd  Pd12  1  0.618554  0.144338  0.618554  1
  Pd  Pd13  1  0.855662  0.381446  0.381446  1
  Pd  Pd14  1  0.381446  0.855662  0.381446  1
  Pd  Pd15  1  0.618554  0.618554  0.144338  1
  Pd  Pd16  1  0.381446  0.381446  0.855662  1
  Pd  Pd17  1  0.000000  -0.000000  0.652824  1
  Pd  Pd18  1  -0.000000  0.000000  0.347176  1
  Pd  Pd19  1  0.347176  0.652824  -0.000000  1
  Pd  Pd20  1  0.652824  0.347176  -0.000000  1
  Pd  Pd21  1  0.000000  0.652824  -0.000000  1
  Pd  Pd22  1  0.652824  -0.000000  0.347176  1
  Pd  Pd23  1  0.000000  0.347176  0.000000  1
  Pd  Pd24  1  0.347176  0.000000  0.652824  1
  Pd  Pd25  1  0.652824  -0.000000  0.000000  1
  Pd  Pd26  1  0.347176  0.000000  -0.000000  1
  Pd  Pd27  1  -0.000000  0.652824  0.347176  1
  Pd  Pd28  1  0.000000  0.347176  0.652824  1
