# generated using pymatgen
data_Fe2CuS3
_symmetry_space_group_name_H-M   'P 1'
_cell_length_a   3.69832795
_cell_length_b   3.69832795
_cell_length_c   9.05922363
_cell_angle_alpha   90.00000000
_cell_angle_beta   90.00000000
_cell_angle_gamma   120.00000000
_symmetry_Int_Tables_number   1
_chemical_formula_structural   Fe2CuS3
_chemical_formula_sum   'Fe2 Cu1 S3'
_cell_volume   107.30808649
_cell_formula_units_Z   1
loop_
 _symmetry_equiv_pos_site_id
 _symmetry_equiv_pos_as_xyz
  1  'x, y, z'
loop_
 _atom_site_type_symbol
 _atom_site_label
 _atom_site_symmetry_multiplicity
 _atom_site_fract_x
 _atom_site_fract_y
 _atom_site_fract_z
 _atom_site_occupancy
  Fe  Fe0  1  0.000000  0.000000  0.245914  1
  Fe  Fe1  1  0.666667  0.333333  0.583297  1
  Cu  Cu2  1  0.333333  0.666667  0.919485  1
  S  S3  1  0.000000  -0.000000  0.002090  1
  S  S4  1  0.666667  0.333333  0.333584  1
  S  S5  1  0.333333  0.666667  0.665630  1
