# generated using pymatgen
data_ZnGeN2
_symmetry_space_group_name_H-M   'P 1'
_cell_length_a   3.21350638
_cell_length_b   3.21350638
_cell_length_c   5.35101160
_cell_angle_alpha   89.99875730
_cell_angle_beta   90.00124270
_cell_angle_gamma   120.00077164
_symmetry_Int_Tables_number   1
_chemical_formula_structural   ZnGeN2
_chemical_formula_sum   'Zn1 Ge1 N2'
_cell_volume   47.85435645
_cell_formula_units_Z   1
loop_
 _symmetry_equiv_pos_site_id
 _symmetry_equiv_pos_as_xyz
  1  'x, y, z'
loop_
 _atom_site_type_symbol
 _atom_site_label
 _atom_site_symmetry_multiplicity
 _atom_site_fract_x
 _atom_site_fract_y
 _atom_site_fract_z
 _atom_site_occupancy
  Zn  Zn0  1  0.333461  0.666539  0.508800  1
  Ge  Ge1  1  0.666726  0.333274  0.976752  1
  N  N2  1  0.333285  0.666715  0.113516  1
  N  N3  1  0.666528  0.333472  0.640931  1
