# generated using pymatgen
data_Eu7Cu44As23
_symmetry_space_group_name_H-M   'P 1'
_cell_length_a   11.83881117
_cell_length_b   11.83881117
_cell_length_c   11.83881117
_cell_angle_alpha   60.00000000
_cell_angle_beta   60.00000000
_cell_angle_gamma   60.00000000
_symmetry_Int_Tables_number   1
_chemical_formula_structural   Eu7Cu44As23
_chemical_formula_sum   'Eu7 Cu44 As23'
_cell_volume   1173.30057362
_cell_formula_units_Z   1
loop_
 _symmetry_equiv_pos_site_id
 _symmetry_equiv_pos_as_xyz
  1  'x, y, z'
loop_
 _atom_site_type_symbol
 _atom_site_label
 _atom_site_symmetry_multiplicity
 _atom_site_fract_x
 _atom_site_fract_y
 _atom_site_fract_z
 _atom_site_occupancy
  Eu  Eu0  1  0.753128  0.246872  0.246872  1
  Eu  Eu1  1  0.753128  0.246872  0.753128  1
  Eu  Eu2  1  0.753128  0.753128  0.246872  1
  Eu  Eu3  1  0.246872  0.753128  0.753128  1
  Eu  Eu4  1  0.246872  0.753128  0.246872  1
  Eu  Eu5  1  0.246872  0.246872  0.753128  1
  Eu  Eu6  1  -0.000000  -0.000000  0.000000  1
  Cu  Cu7  1  0.472850  0.019303  0.253924  1
  Cu  Cu8  1  0.472850  0.253924  0.253924  1
  Cu  Cu9  1  0.472850  0.253924  0.019303  1
  Cu  Cu10  1  0.019303  0.472850  0.253924  1
  Cu  Cu11  1  0.253924  0.472850  0.019303  1
  Cu  Cu12  1  0.253924  0.472850  0.253924  1
  Cu  Cu13  1  0.253924  0.253924  0.472850  1
  Cu  Cu14  1  0.253924  0.019303  0.472850  1
  Cu  Cu15  1  0.019303  0.253924  0.472850  1
  Cu  Cu16  1  0.253924  0.253924  0.019303  1
  Cu  Cu17  1  0.019303  0.253924  0.253924  1
  Cu  Cu18  1  0.253924  0.019303  0.253924  1
  Cu  Cu19  1  0.527150  0.980697  0.746076  1
  Cu  Cu20  1  0.527150  0.746076  0.746076  1
  Cu  Cu21  1  0.527150  0.746076  0.980697  1
  Cu  Cu22  1  0.980697  0.527150  0.746076  1
  Cu  Cu23  1  0.746076  0.527150  0.980697  1
  Cu  Cu24  1  0.746076  0.527150  0.746076  1
  Cu  Cu25  1  0.746076  0.746076  0.527150  1
  Cu  Cu26  1  0.746076  0.980697  0.527150  1
  Cu  Cu27  1  0.980697  0.746076  0.527150  1
  Cu  Cu28  1  0.746076  0.746076  0.980697  1
  Cu  Cu29  1  0.980697  0.746076  0.746076  1
  Cu  Cu30  1  0.746076  0.980697  0.746076  1
  Cu  Cu31  1  0.636082  -0.000000  0.000000  1
  Cu  Cu32  1  0.636082  0.000000  0.363918  1
  Cu  Cu33  1  0.636082  0.363918  0.000000  1
  Cu  Cu34  1  -0.000000  0.636082  0.363918  1
  Cu  Cu35  1  0.000000  0.636082  -0.000000  1
  Cu  Cu36  1  0.363918  0.636082  -0.000000  1
  Cu  Cu37  1  0.000000  0.363918  0.636082  1
  Cu  Cu38  1  0.363918  -0.000000  0.636082  1
  Cu  Cu39  1  -0.000000  0.000000  0.636082  1
  Cu  Cu40  1  0.363918  0.000000  -0.000000  1
  Cu  Cu41  1  -0.000000  0.363918  0.000000  1
  Cu  Cu42  1  0.000000  -0.000000  0.363918  1
  Cu  Cu43  1  0.763591  0.412136  0.412136  1
  Cu  Cu44  1  0.412136  0.763591  0.412136  1
  Cu  Cu45  1  0.412136  0.412136  0.763591  1
  Cu  Cu46  1  0.412136  0.412136  0.412136  1
  Cu  Cu47  1  0.236409  0.587864  0.587864  1
  Cu  Cu48  1  0.587864  0.236409  0.587864  1
  Cu  Cu49  1  0.587864  0.587864  0.236409  1
  Cu  Cu50  1  0.587864  0.587864  0.587864  1
  As  As51  1  0.155659  0.500000  0.500000  1
  As  As52  1  0.155659  0.500000  0.844341  1
  As  As53  1  0.155659  0.844341  0.500000  1
  As  As54  1  0.500000  0.155659  0.844341  1
  As  As55  1  0.500000  0.155659  0.500000  1
  As  As56  1  0.844341  0.155659  0.500000  1
  As  As57  1  0.500000  0.844341  0.155659  1
  As  As58  1  0.844341  0.500000  0.155659  1
  As  As59  1  0.500000  0.500000  0.155659  1
  As  As60  1  0.844341  0.500000  0.500000  1
  As  As61  1  0.500000  0.844341  0.500000  1
  As  As62  1  0.500000  0.500000  0.844341  1
  As  As63  1  0.674136  0.108621  0.108621  1
  As  As64  1  0.108621  0.674136  0.108621  1
  As  As65  1  0.108621  0.108621  0.674136  1
  As  As66  1  0.108621  0.108621  0.108621  1
  As  As67  1  0.325864  0.891379  0.891379  1
  As  As68  1  0.891379  0.325864  0.891379  1
  As  As69  1  0.891379  0.891379  0.325864  1
  As  As70  1  0.891379  0.891379  0.891379  1
  As  As71  1  0.250000  0.250000  0.250000  1
  As  As72  1  0.750000  0.750000  0.750000  1
  As  As73  1  0.500000  0.500000  0.500000  1
