# generated using pymatgen
data_Y6Si7Ni16
_symmetry_space_group_name_H-M   'P 1'
_cell_length_a   8.30552222
_cell_length_b   8.30552222
_cell_length_c   8.30552222
_cell_angle_alpha   60.00000000
_cell_angle_beta   60.00000000
_cell_angle_gamma   60.00000000
_symmetry_Int_Tables_number   1
_chemical_formula_structural   Y6Si7Ni16
_chemical_formula_sum   'Y6 Si7 Ni16'
_cell_volume   405.12200636
_cell_formula_units_Z   1
loop_
 _symmetry_equiv_pos_site_id
 _symmetry_equiv_pos_as_xyz
  1  'x, y, z'
loop_
 _atom_site_type_symbol
 _atom_site_label
 _atom_site_symmetry_multiplicity
 _atom_site_fract_x
 _atom_site_fract_y
 _atom_site_fract_z
 _atom_site_occupancy
  Y  Y0  1  0.710179  0.710179  0.289821  1
  Y  Y1  1  0.289821  0.289821  0.710179  1
  Y  Y2  1  0.710179  0.289821  0.710179  1
  Y  Y3  1  0.289821  0.710179  0.289821  1
  Y  Y4  1  0.289821  0.710179  0.710179  1
  Y  Y5  1  0.710179  0.289821  0.289821  1
  Si  Si6  1  0.000000  -0.000000  0.500000  1
  Si  Si7  1  0.500000  0.500000  -0.000000  1
  Si  Si8  1  0.000000  0.500000  -0.000000  1
  Si  Si9  1  0.500000  -0.000000  0.500000  1
  Si  Si10  1  0.500000  -0.000000  -0.000000  1
  Si  Si11  1  0.000000  0.500000  0.500000  1
  Si  Si12  1  0.000000  -0.000000  -0.000000  1
  Ni  Ni13  1  0.672262  0.672262  0.672262  1
  Ni  Ni14  1  0.327738  0.327738  0.327738  1
  Ni  Ni15  1  0.983213  0.672262  0.672262  1
  Ni  Ni16  1  0.672262  0.983213  0.672262  1
  Ni  Ni17  1  0.016787  0.327738  0.327738  1
  Ni  Ni18  1  0.327738  0.016787  0.327738  1
  Ni  Ni19  1  0.672262  0.672262  0.983213  1
  Ni  Ni20  1  0.327738  0.327738  0.016787  1
  Ni  Ni21  1  0.879343  0.879343  0.879343  1
  Ni  Ni22  1  0.120657  0.120657  0.120657  1
  Ni  Ni23  1  0.361970  0.879343  0.879343  1
  Ni  Ni24  1  0.879343  0.361970  0.879343  1
  Ni  Ni25  1  0.638030  0.120657  0.120657  1
  Ni  Ni26  1  0.120657  0.638030  0.120657  1
  Ni  Ni27  1  0.879343  0.879343  0.361970  1
  Ni  Ni28  1  0.120657  0.120657  0.638030  1
