# generated using pymatgen
data_Hf3SiMo8
_symmetry_space_group_name_H-M   'P 1'
_cell_length_a   5.34472713
_cell_length_b   5.34363034
_cell_length_c   8.55558007
_cell_angle_alpha   89.99882113
_cell_angle_beta   89.99704602
_cell_angle_gamma   59.99943251
_symmetry_Int_Tables_number   1
_chemical_formula_structural   Hf3SiMo8
_chemical_formula_sum   'Hf3 Si1 Mo8'
_cell_volume   211.61163984
_cell_formula_units_Z   1
loop_
 _symmetry_equiv_pos_site_id
 _symmetry_equiv_pos_as_xyz
  1  'x, y, z'
loop_
 _atom_site_type_symbol
 _atom_site_label
 _atom_site_symmetry_multiplicity
 _atom_site_fract_x
 _atom_site_fract_y
 _atom_site_fract_z
 _atom_site_occupancy
  Hf  Hf0  1  0.666647  0.666673  0.442293  1
  Hf  Hf1  1  0.666656  0.666641  0.061777  1
  Hf  Hf2  1  0.333354  0.333341  0.937689  1
  Si  Si3  1  0.333388  0.333292  0.564641  1
  Mo  Mo4  1  0.000042  0.000053  0.498572  1
  Mo  Mo5  1  0.000044  0.000075  0.997765  1
  Mo  Mo6  1  0.829032  0.341775  0.745833  1
  Mo  Mo7  1  0.341747  0.829058  0.745844  1
  Mo  Mo8  1  0.829061  0.829088  0.745689  1
  Mo  Mo9  1  0.170734  0.658504  0.253281  1
  Mo  Mo10  1  0.658521  0.170724  0.253269  1
  Mo  Mo11  1  0.170772  0.170775  0.253348  1
