# generated using pymatgen
data_La6Mg23C
_symmetry_space_group_name_H-M   'P 1'
_cell_length_a   10.25893086
_cell_length_b   10.25893086
_cell_length_c   10.25893086
_cell_angle_alpha   60.00000000
_cell_angle_beta   60.00000000
_cell_angle_gamma   60.00000000
_symmetry_Int_Tables_number   1
_chemical_formula_structural   La6Mg23C
_chemical_formula_sum   'La6 Mg23 C1'
_cell_volume   763.46883033
_cell_formula_units_Z   1
loop_
 _symmetry_equiv_pos_site_id
 _symmetry_equiv_pos_as_xyz
  1  'x, y, z'
loop_
 _atom_site_type_symbol
 _atom_site_label
 _atom_site_symmetry_multiplicity
 _atom_site_fract_x
 _atom_site_fract_y
 _atom_site_fract_z
 _atom_site_occupancy
  La  La0  1  0.814481  0.185519  0.185519  1
  La  La1  1  0.814481  0.185519  0.814481  1
  La  La2  1  0.814481  0.814481  0.185519  1
  La  La3  1  0.185519  0.814481  0.814481  1
  La  La4  1  0.185519  0.814481  0.185519  1
  La  La5  1  0.185519  0.185519  0.814481  1
  Mg  Mg6  1  0.479392  0.173536  0.173536  1
  Mg  Mg7  1  0.173536  0.479392  0.173536  1
  Mg  Mg8  1  0.173536  0.173536  0.479392  1
  Mg  Mg9  1  0.173536  0.173536  0.173536  1
  Mg  Mg10  1  0.520608  0.826464  0.826464  1
  Mg  Mg11  1  0.826464  0.520608  0.826464  1
  Mg  Mg12  1  0.826464  0.826464  0.520608  1
  Mg  Mg13  1  0.826464  0.826464  0.826464  1
  Mg  Mg14  1  0.858578  0.380474  0.380474  1
  Mg  Mg15  1  0.380474  0.858578  0.380474  1
  Mg  Mg16  1  0.380474  0.380474  0.858578  1
  Mg  Mg17  1  0.380474  0.380474  0.380474  1
  Mg  Mg18  1  0.141422  0.619526  0.619526  1
  Mg  Mg19  1  0.619526  0.141422  0.619526  1
  Mg  Mg20  1  0.619526  0.619526  0.141422  1
  Mg  Mg21  1  0.619526  0.619526  0.619526  1
  Mg  Mg22  1  0.500000  0.000000  -0.000000  1
  Mg  Mg23  1  0.500000  0.000000  0.500000  1
  Mg  Mg24  1  0.500000  0.500000  -0.000000  1
  Mg  Mg25  1  -0.000000  0.500000  0.500000  1
  Mg  Mg26  1  -0.000000  0.500000  -0.000000  1
  Mg  Mg27  1  -0.000000  0.000000  0.500000  1
  Mg  Mg28  1  0.500000  0.500000  0.500000  1
  C  C29  1  -0.000000  0.000000  -0.000000  1
