# generated using pymatgen
data_Ta3Co8Si
_symmetry_space_group_name_H-M   'P 1'
_cell_length_a   4.74199425
_cell_length_b   4.74292677
_cell_length_c   7.67875739
_cell_angle_alpha   90.00000000
_cell_angle_beta   90.00570154
_cell_angle_gamma   59.99348720
_symmetry_Int_Tables_number   1
_chemical_formula_structural   Ta3Co8Si
_chemical_formula_sum   'Ta3 Co8 Si1'
_cell_volume   149.55485382
_cell_formula_units_Z   1
loop_
 _symmetry_equiv_pos_site_id
 _symmetry_equiv_pos_as_xyz
  1  'x, y, z'
loop_
 _atom_site_type_symbol
 _atom_site_label
 _atom_site_symmetry_multiplicity
 _atom_site_fract_x
 _atom_site_fract_y
 _atom_site_fract_z
 _atom_site_occupancy
  Ta  Ta0  1  0.666668  0.666666  0.445121  1
  Ta  Ta1  1  0.666609  0.666695  0.072402  1
  Ta  Ta2  1  0.333322  0.333339  0.910127  1
  Co  Co3  1  0.999911  0.000045  0.504532  1
  Co  Co4  1  0.000164  0.999918  0.006002  1
  Co  Co5  1  0.831984  0.335980  0.752076  1
  Co  Co6  1  0.335987  0.832007  0.752060  1
  Co  Co7  1  0.831984  0.832037  0.752076  1
  Co  Co8  1  0.169050  0.661870  0.253906  1
  Co  Co9  1  0.661866  0.169067  0.253755  1
  Co  Co10  1  0.169050  0.169080  0.253906  1
  Si  Si11  1  0.333405  0.333297  0.544037  1
