# generated using pymatgen
data_K3NdF6
_symmetry_space_group_name_H-M   'P 1'
_cell_length_a   6.81033324
_cell_length_b   6.81033344
_cell_length_c   6.81033344
_cell_angle_alpha   59.99999921
_cell_angle_beta   59.99999888
_cell_angle_gamma   59.99999890
_symmetry_Int_Tables_number   1
_chemical_formula_structural   K3NdF6
_chemical_formula_sum   'K3 Nd1 F6'
_cell_volume   223.35213443
_cell_formula_units_Z   1
loop_
 _symmetry_equiv_pos_site_id
 _symmetry_equiv_pos_as_xyz
  1  'x, y, z'
loop_
 _atom_site_type_symbol
 _atom_site_label
 _atom_site_symmetry_multiplicity
 _atom_site_fract_x
 _atom_site_fract_y
 _atom_site_fract_z
 _atom_site_occupancy
  K  K0  1  0.250000  0.250000  0.250000  1
  K  K1  1  0.750000  0.750000  0.750000  1
  K  K2  1  0.500000  0.500000  0.500000  1
  Nd  Nd3  1  -0.000000  -0.000000  -0.000000  1
  F  F4  1  0.236036  0.763964  0.236036  1
  F  F5  1  0.763964  0.763964  0.236036  1
  F  F6  1  0.763964  0.236036  0.763964  1
  F  F7  1  0.763964  0.236036  0.236036  1
  F  F8  1  0.236036  0.763964  0.763964  1
  F  F9  1  0.236036  0.236036  0.763964  1
