# generated using pymatgen
data_BaAl4Se7
_symmetry_space_group_name_H-M   'P 1'
_cell_length_a   6.62518633
_cell_length_b   7.72266776
_cell_length_c   12.78226599
_cell_angle_alpha   89.82972179
_cell_angle_beta   90.00000000
_cell_angle_gamma   90.00000000
_symmetry_Int_Tables_number   1
_chemical_formula_structural   BaAl4Se7
_chemical_formula_sum   'Ba2 Al8 Se14'
_cell_volume   653.99041180
_cell_formula_units_Z   2
loop_
 _symmetry_equiv_pos_site_id
 _symmetry_equiv_pos_as_xyz
  1  'x, y, z'
loop_
 _atom_site_type_symbol
 _atom_site_label
 _atom_site_symmetry_multiplicity
 _atom_site_fract_x
 _atom_site_fract_y
 _atom_site_fract_z
 _atom_site_occupancy
  Ba  Ba0  1  0.641978  0.019650  0.545390  1
  Ba  Ba1  1  0.358022  0.519650  0.045390  1
  Al  Al2  1  0.838744  0.767135  0.240467  1
  Al  Al3  1  0.161256  0.267135  0.740467  1
  Al  Al4  1  0.987527  0.500944  0.502570  1
  Al  Al5  1  0.012473  0.000944  0.002570  1
  Al  Al6  1  0.845627  0.262657  0.228656  1
  Al  Al7  1  0.154373  0.762657  0.728656  1
  Al  Al8  1  0.635180  0.510906  0.724992  1
  Al  Al9  1  0.364820  0.010906  0.224992  1
  Se  Se10  1  0.853159  0.732997  0.056110  1
  Se  Se11  1  0.146841  0.232997  0.556110  1
  Se  Se12  1  0.637957  0.467415  0.540499  1
  Se  Se13  1  0.362043  0.967415  0.040499  1
  Se  Se14  1  0.894700  0.284909  0.045723  1
  Se  Se15  1  0.105300  0.784909  0.545723  1
  Se  Se16  1  0.977093  0.517813  0.807270  1
  Se  Se17  1  0.022907  0.017813  0.307270  1
  Se  Se18  1  0.486166  0.274877  0.818933  1
  Se  Se19  1  0.513834  0.774877  0.318933  1
  Se  Se20  1  0.498399  0.782348  0.779520  1
  Se  Se21  1  0.501601  0.282348  0.279520  1
  Se  Se22  1  0.977522  0.011928  0.807588  1
  Se  Se23  1  0.022478  0.511928  0.307588  1
