# generated using pymatgen
data_Eu2AgPb
_symmetry_space_group_name_H-M   'P 1'
_cell_length_a   5.55361524
_cell_length_b   5.55435730
_cell_length_c   5.55383387
_cell_angle_alpha   59.99564977
_cell_angle_beta   60.00844123
_cell_angle_gamma   60.00098087
_symmetry_Int_Tables_number   1
_chemical_formula_structural   Eu2AgPb
_chemical_formula_sum   'Eu2 Ag1 Pb1'
_cell_volume   121.14461754
_cell_formula_units_Z   1
loop_
 _symmetry_equiv_pos_site_id
 _symmetry_equiv_pos_as_xyz
  1  'x, y, z'
loop_
 _atom_site_type_symbol
 _atom_site_label
 _atom_site_symmetry_multiplicity
 _atom_site_fract_x
 _atom_site_fract_y
 _atom_site_fract_z
 _atom_site_occupancy
  Eu  Eu0  1  0.000016  0.999974  0.999999  1
  Eu  Eu1  1  0.499976  0.500027  0.500008  1
  Ag  Ag2  1  0.250001  0.250003  0.249995  1
  Pb  Pb3  1  0.750007  0.749996  0.749998  1
