# generated using pymatgen
data_Na3BiF6
_symmetry_space_group_name_H-M   'P 1'
_cell_length_a   6.33346661
_cell_length_b   6.33346674
_cell_length_c   6.33346674
_cell_angle_alpha   59.99999952
_cell_angle_beta   59.99999917
_cell_angle_gamma   59.99999919
_symmetry_Int_Tables_number   1
_chemical_formula_structural   Na3BiF6
_chemical_formula_sum   'Na3 Bi1 F6'
_cell_volume   179.64265653
_cell_formula_units_Z   1
loop_
 _symmetry_equiv_pos_site_id
 _symmetry_equiv_pos_as_xyz
  1  'x, y, z'
loop_
 _atom_site_type_symbol
 _atom_site_label
 _atom_site_symmetry_multiplicity
 _atom_site_fract_x
 _atom_site_fract_y
 _atom_site_fract_z
 _atom_site_occupancy
  Na  Na0  1  0.250000  0.250000  0.250000  1
  Na  Na1  1  0.750000  0.750000  0.750000  1
  Na  Na2  1  0.500000  0.500000  0.500000  1
  Bi  Bi3  1  0.000000  0.000000  0.000000  1
  F  F4  1  0.251350  0.748650  0.251350  1
  F  F5  1  0.748650  0.748650  0.251350  1
  F  F6  1  0.748650  0.251350  0.748650  1
  F  F7  1  0.748650  0.251350  0.251350  1
  F  F8  1  0.251350  0.748650  0.748650  1
  F  F9  1  0.251350  0.251350  0.748650  1
