# generated using pymatgen
data_TaSeS
_symmetry_space_group_name_H-M   'P 1'
_cell_length_a   3.43353144
_cell_length_b   3.43312394
_cell_length_c   6.39994982
_cell_angle_alpha   90.00000002
_cell_angle_beta   90.00505643
_cell_angle_gamma   119.99607483
_symmetry_Int_Tables_number   1
_chemical_formula_structural   TaSeS
_chemical_formula_sum   'Ta1 Se1 S1'
_cell_volume   65.33635253
_cell_formula_units_Z   1
loop_
 _symmetry_equiv_pos_site_id
 _symmetry_equiv_pos_as_xyz
  1  'x, y, z'
loop_
 _atom_site_type_symbol
 _atom_site_label
 _atom_site_symmetry_multiplicity
 _atom_site_fract_x
 _atom_site_fract_y
 _atom_site_fract_z
 _atom_site_occupancy
  Ta  Ta0  1  0.999940  0.999970  0.010597  1
  Se  Se1  1  0.666648  0.333324  0.743908  1
  S  S2  1  0.333412  0.666706  0.245495  1
