# generated using pymatgen
data_Ta3SiNi8
_symmetry_space_group_name_H-M   'P 1'
_cell_length_a   4.76706323
_cell_length_b   4.76706323
_cell_length_c   7.67721695
_cell_angle_alpha   90.01266450
_cell_angle_beta   89.98733550
_cell_angle_gamma   119.98867109
_symmetry_Int_Tables_number   1
_chemical_formula_structural   Ta3SiNi8
_chemical_formula_sum   'Ta3 Si1 Ni8'
_cell_volume   151.10743112
_cell_formula_units_Z   1
loop_
 _symmetry_equiv_pos_site_id
 _symmetry_equiv_pos_as_xyz
  1  'x, y, z'
loop_
 _atom_site_type_symbol
 _atom_site_label
 _atom_site_symmetry_multiplicity
 _atom_site_fract_x
 _atom_site_fract_y
 _atom_site_fract_z
 _atom_site_occupancy
  Ta  Ta0  1  0.333402  0.666598  0.448053  1
  Ta  Ta1  1  0.333427  0.666573  0.065511  1
  Ta  Ta2  1  0.666814  0.333186  0.915978  1
  Si  Si3  1  0.666747  0.333253  0.537092  1
  Ni  Ni4  1  0.999862  0.000138  0.504902  1
  Ni  Ni5  1  0.999941  0.000059  0.006029  1
  Ni  Ni6  1  0.169340  0.338678  0.754542  1
  Ni  Ni7  1  0.169317  0.830683  0.754585  1
  Ni  Ni8  1  0.661322  0.830660  0.754542  1
  Ni  Ni9  1  0.829432  0.658970  0.252916  1
  Ni  Ni10  1  0.829366  0.170634  0.252933  1
  Ni  Ni11  1  0.341030  0.170568  0.252916  1
