# generated using pymatgen
data_NbSb3O8
_symmetry_space_group_name_H-M   'P 1'
_cell_length_a   4.96829483
_cell_length_b   5.58615333
_cell_length_c   11.93911606
_cell_angle_alpha   90.00000000
_cell_angle_beta   89.69400356
_cell_angle_gamma   90.00000000
_symmetry_Int_Tables_number   1
_chemical_formula_structural   NbSb3O8
_chemical_formula_sum   'Nb2 Sb6 O16'
_cell_volume   331.34940330
_cell_formula_units_Z   2
loop_
 _symmetry_equiv_pos_site_id
 _symmetry_equiv_pos_as_xyz
  1  'x, y, z'
loop_
 _atom_site_type_symbol
 _atom_site_label
 _atom_site_symmetry_multiplicity
 _atom_site_fract_x
 _atom_site_fract_y
 _atom_site_fract_z
 _atom_site_occupancy
  Nb  Nb0  1  0.498327  0.628405  0.574536  1
  Nb  Nb1  1  0.998327  0.871595  0.074536  1
  Sb  Sb2  1  0.492798  0.370585  0.069224  1
  Sb  Sb3  1  0.992798  0.129415  0.569224  1
  Sb  Sb4  1  0.547719  0.024316  0.820735  1
  Sb  Sb5  1  0.457753  0.967263  0.323381  1
  Sb  Sb6  1  0.047719  0.475684  0.320735  1
  Sb  Sb7  1  0.957753  0.532737  0.823381  1
  O  O8  1  0.667194  0.347697  0.911254  1
  O  O9  1  0.332922  0.653106  0.412541  1
  O  O10  1  0.167194  0.152303  0.411254  1
  O  O11  1  0.832922  0.846894  0.912541  1
  O  O12  1  0.341464  0.318023  0.224968  1
  O  O13  1  0.660505  0.681913  0.723923  1
  O  O14  1  0.841464  0.181977  0.724968  1
  O  O15  1  0.160505  0.818087  0.223923  1
  O  O16  1  0.784511  0.143048  0.118478  1
  O  O17  1  0.213275  0.859925  0.622936  1
  O  O18  1  0.284511  0.356952  0.618478  1
  O  O19  1  0.713275  0.640075  0.122936  1
  O  O20  1  0.296246  0.079724  0.014137  1
  O  O21  1  0.707286  0.919347  0.509888  1
  O  O22  1  0.796246  0.420276  0.514137  1
  O  O23  1  0.207286  0.580653  0.009888  1
