# generated using pymatgen
data_Er6Al7Cu16
_symmetry_space_group_name_H-M   'P 1'
_cell_length_a   8.64775761
_cell_length_b   8.64775761
_cell_length_c   8.64775761
_cell_angle_alpha   60.00000000
_cell_angle_beta   60.00000000
_cell_angle_gamma   60.00000000
_symmetry_Int_Tables_number   1
_chemical_formula_structural   Er6Al7Cu16
_chemical_formula_sum   'Er6 Al7 Cu16'
_cell_volume   457.29402518
_cell_formula_units_Z   1
loop_
 _symmetry_equiv_pos_site_id
 _symmetry_equiv_pos_as_xyz
  1  'x, y, z'
loop_
 _atom_site_type_symbol
 _atom_site_label
 _atom_site_symmetry_multiplicity
 _atom_site_fract_x
 _atom_site_fract_y
 _atom_site_fract_z
 _atom_site_occupancy
  Er  Er0  1  0.712640  0.287360  0.287360  1
  Er  Er1  1  0.712640  0.287360  0.712640  1
  Er  Er2  1  0.712640  0.712640  0.287360  1
  Er  Er3  1  0.287360  0.712640  0.712640  1
  Er  Er4  1  0.287360  0.712640  0.287360  1
  Er  Er5  1  0.287360  0.287360  0.712640  1
  Al  Al6  1  -0.000000  -0.000000  0.000000  1
  Al  Al7  1  0.500000  -0.000000  0.000000  1
  Al  Al8  1  0.500000  -0.000000  0.500000  1
  Al  Al9  1  0.500000  0.500000  0.000000  1
  Al  Al10  1  -0.000000  0.500000  0.500000  1
  Al  Al11  1  -0.000000  0.500000  0.000000  1
  Al  Al12  1  -0.000000  -0.000000  0.500000  1
  Cu  Cu13  1  0.633551  0.122150  0.122150  1
  Cu  Cu14  1  0.122150  0.633551  0.122150  1
  Cu  Cu15  1  0.122150  0.122150  0.633551  1
  Cu  Cu16  1  0.122150  0.122150  0.122150  1
  Cu  Cu17  1  0.366449  0.877850  0.877850  1
  Cu  Cu18  1  0.877850  0.366449  0.877850  1
  Cu  Cu19  1  0.877850  0.877850  0.366449  1
  Cu  Cu20  1  0.877850  0.877850  0.877850  1
  Cu  Cu21  1  0.017888  0.327371  0.327371  1
  Cu  Cu22  1  0.327371  0.017888  0.327371  1
  Cu  Cu23  1  0.327371  0.327371  0.017888  1
  Cu  Cu24  1  0.327371  0.327371  0.327371  1
  Cu  Cu25  1  0.982112  0.672629  0.672629  1
  Cu  Cu26  1  0.672629  0.982112  0.672629  1
  Cu  Cu27  1  0.672629  0.672629  0.982112  1
  Cu  Cu28  1  0.672629  0.672629  0.672629  1
