# generated using pymatgen
data_K3AsI6
_symmetry_space_group_name_H-M   'P 1'
_cell_length_a   8.79644993
_cell_length_b   8.79645046
_cell_length_c   8.79645043
_cell_angle_alpha   59.99999845
_cell_angle_beta   59.99999775
_cell_angle_gamma   59.99999782
_symmetry_Int_Tables_number   1
_chemical_formula_structural   K3AsI6
_chemical_formula_sum   'K3 As1 I6'
_cell_volume   481.29055403
_cell_formula_units_Z   1
loop_
 _symmetry_equiv_pos_site_id
 _symmetry_equiv_pos_as_xyz
  1  'x, y, z'
loop_
 _atom_site_type_symbol
 _atom_site_label
 _atom_site_symmetry_multiplicity
 _atom_site_fract_x
 _atom_site_fract_y
 _atom_site_fract_z
 _atom_site_occupancy
  K  K0  1  0.250000  0.250000  0.250000  1
  K  K1  1  0.750000  0.750000  0.750000  1
  K  K2  1  0.500000  0.500000  0.500000  1
  As  As3  1  -0.000000  -0.000000  0.000000  1
  I  I4  1  0.230752  0.769248  0.230752  1
  I  I5  1  0.769248  0.769248  0.230752  1
  I  I6  1  0.769248  0.230752  0.769248  1
  I  I7  1  0.769248  0.230752  0.230752  1
  I  I8  1  0.230752  0.769248  0.769248  1
  I  I9  1  0.230752  0.230752  0.769248  1
