# generated using pymatgen
data_V(NCl3)2
_symmetry_space_group_name_H-M   'P 1'
_cell_length_a   6.87262421
_cell_length_b   6.87262421
_cell_length_c   6.87262421
_cell_angle_alpha   60.00000000
_cell_angle_beta   60.00000000
_cell_angle_gamma   60.00000000
_symmetry_Int_Tables_number   1
_chemical_formula_structural   V(NCl3)2
_chemical_formula_sum   'V1 N2 Cl6'
_cell_volume   229.53704916
_cell_formula_units_Z   1
loop_
 _symmetry_equiv_pos_site_id
 _symmetry_equiv_pos_as_xyz
  1  'x, y, z'
loop_
 _atom_site_type_symbol
 _atom_site_label
 _atom_site_symmetry_multiplicity
 _atom_site_fract_x
 _atom_site_fract_y
 _atom_site_fract_z
 _atom_site_occupancy
  V  V0  1  0.000000  -0.000000  -0.000000  1
  N  N1  1  0.250000  0.250000  0.250000  1
  N  N2  1  0.750000  0.750000  0.750000  1
  Cl  Cl3  1  0.767839  0.232161  0.232161  1
  Cl  Cl4  1  0.767839  0.232161  0.767839  1
  Cl  Cl5  1  0.767839  0.767839  0.232161  1
  Cl  Cl6  1  0.232161  0.767839  0.767839  1
  Cl  Cl7  1  0.232161  0.767839  0.232161  1
  Cl  Cl8  1  0.232161  0.232161  0.767839  1
