# generated using pymatgen
data_LaNi5H6
_symmetry_space_group_name_H-M   'P 1'
_cell_length_a   4.20129420
_cell_length_b   5.30155767
_cell_length_c   5.30116401
_cell_angle_alpha   60.01259786
_cell_angle_beta   89.99150497
_cell_angle_gamma   90.01051457
_symmetry_Int_Tables_number   1
_chemical_formula_structural   LaNi5H6
_chemical_formula_sum   'La1 Ni5 H6'
_cell_volume   102.26889193
_cell_formula_units_Z   1
loop_
 _symmetry_equiv_pos_site_id
 _symmetry_equiv_pos_as_xyz
  1  'x, y, z'
loop_
 _atom_site_type_symbol
 _atom_site_label
 _atom_site_symmetry_multiplicity
 _atom_site_fract_x
 _atom_site_fract_y
 _atom_site_fract_z
 _atom_site_occupancy
  La  La0  1  0.896149  0.000067  0.999944  1
  Ni  Ni1  1  0.499486  0.504208  0.979737  1
  Ni  Ni2  1  0.499411  0.516071  0.504276  1
  Ni  Ni3  1  0.499371  0.980023  0.515795  1
  Ni  Ni4  1  0.049444  0.333695  0.333288  1
  Ni  Ni5  1  0.016263  0.666845  0.666609  1
  H  H6  1  0.886943  0.490252  0.008067  1
  H  H7  1  0.886743  0.501388  0.490852  1
  H  H8  1  0.886759  0.008102  0.501651  1
  H  H9  1  0.361532  0.183278  0.645900  1
  H  H10  1  0.361960  0.170493  0.182744  1
  H  H11  1  0.360939  0.645578  0.171136  1
