# generated using pymatgen
data_Pr3Cr10N11
_symmetry_space_group_name_H-M   'P 1'
_cell_length_a   9.09844369
_cell_length_b   9.09844369
_cell_length_c   9.09844369
_cell_angle_alpha   60.00000000
_cell_angle_beta   60.00000000
_cell_angle_gamma   60.00000000
_symmetry_Int_Tables_number   1
_chemical_formula_structural   Pr3Cr10N11
_chemical_formula_sum   'Pr6 Cr20 N22'
_cell_volume   532.58181901
_cell_formula_units_Z   2
loop_
 _symmetry_equiv_pos_site_id
 _symmetry_equiv_pos_as_xyz
  1  'x, y, z'
loop_
 _atom_site_type_symbol
 _atom_site_label
 _atom_site_symmetry_multiplicity
 _atom_site_fract_x
 _atom_site_fract_y
 _atom_site_fract_z
 _atom_site_occupancy
  Pr  Pr0  1  0.698358  0.698358  0.301642  1
  Pr  Pr1  1  0.301642  0.301642  0.698358  1
  Pr  Pr2  1  0.698358  0.301642  0.698358  1
  Pr  Pr3  1  0.301642  0.698358  0.301642  1
  Pr  Pr4  1  0.301642  0.698358  0.698358  1
  Pr  Pr5  1  0.698358  0.301642  0.301642  1
  Cr  Cr6  1  0.904230  0.904230  0.904230  1
  Cr  Cr7  1  0.095770  0.095770  0.095770  1
  Cr  Cr8  1  0.287309  0.904230  0.904230  1
  Cr  Cr9  1  0.904230  0.287309  0.904230  1
  Cr  Cr10  1  0.712691  0.095770  0.095770  1
  Cr  Cr11  1  0.095770  0.712691  0.095770  1
  Cr  Cr12  1  0.904230  0.904230  0.287309  1
  Cr  Cr13  1  0.095770  0.095770  0.712691  1
  Cr  Cr14  1  0.898383  0.898383  0.601617  1
  Cr  Cr15  1  0.101617  0.101617  0.398383  1
  Cr  Cr16  1  0.601617  0.601617  0.898383  1
  Cr  Cr17  1  0.898383  0.601617  0.898383  1
  Cr  Cr18  1  0.398383  0.101617  0.398383  1
  Cr  Cr19  1  0.398383  0.398383  0.101617  1
  Cr  Cr20  1  0.101617  0.398383  0.101617  1
  Cr  Cr21  1  0.601617  0.898383  0.601617  1
  Cr  Cr22  1  0.601617  0.898383  0.898383  1
  Cr  Cr23  1  0.398383  0.101617  0.101617  1
  Cr  Cr24  1  0.898383  0.601617  0.601617  1
  Cr  Cr25  1  0.101617  0.398383  0.398383  1
  N  N26  1  -0.000000  -0.000000  0.655236  1
  N  N27  1  -0.000000  -0.000000  0.344764  1
  N  N28  1  0.344764  0.655236  0.000000  1
  N  N29  1  0.655236  0.344764  0.000000  1
  N  N30  1  0.000000  0.655236  -0.000000  1
  N  N31  1  0.655236  -0.000000  0.344764  1
  N  N32  1  -0.000000  0.344764  0.000000  1
  N  N33  1  0.344764  -0.000000  0.655236  1
  N  N34  1  0.655236  -0.000000  0.000000  1
  N  N35  1  0.344764  0.000000  -0.000000  1
  N  N36  1  -0.000000  0.655236  0.344764  1
  N  N37  1  -0.000000  0.344764  0.655236  1
  N  N38  1  0.647128  0.647128  0.647128  1
  N  N39  1  0.352872  0.352872  0.352872  1
  N  N40  1  0.058617  0.647128  0.647128  1
  N  N41  1  0.647128  0.058617  0.647128  1
  N  N42  1  0.941383  0.352872  0.352872  1
  N  N43  1  0.352872  0.941383  0.352872  1
  N  N44  1  0.647128  0.647128  0.058617  1
  N  N45  1  0.352872  0.352872  0.941383  1
  N  N46  1  0.500000  0.500000  0.500000  1
  N  N47  1  -0.000000  -0.000000  0.000000  1
