# generated using pymatgen
data_Sc6Ga16Os7
_symmetry_space_group_name_H-M   'P 1'
_cell_length_a   8.81463512
_cell_length_b   8.81463512
_cell_length_c   8.81463512
_cell_angle_alpha   60.00000000
_cell_angle_beta   60.00000000
_cell_angle_gamma   60.00000000
_symmetry_Int_Tables_number   1
_chemical_formula_structural   Sc6Ga16Os7
_chemical_formula_sum   'Sc6 Ga16 Os7'
_cell_volume   484.28165868
_cell_formula_units_Z   1
loop_
 _symmetry_equiv_pos_site_id
 _symmetry_equiv_pos_as_xyz
  1  'x, y, z'
loop_
 _atom_site_type_symbol
 _atom_site_label
 _atom_site_symmetry_multiplicity
 _atom_site_fract_x
 _atom_site_fract_y
 _atom_site_fract_z
 _atom_site_occupancy
  Sc  Sc0  1  0.716607  0.283393  0.283393  1
  Sc  Sc1  1  0.716607  0.283393  0.716607  1
  Sc  Sc2  1  0.716607  0.716607  0.283393  1
  Sc  Sc3  1  0.283393  0.716607  0.716607  1
  Sc  Sc4  1  0.283393  0.716607  0.283393  1
  Sc  Sc5  1  0.283393  0.283393  0.716607  1
  Ga  Ga6  1  0.634429  0.121857  0.121857  1
  Ga  Ga7  1  0.121857  0.634429  0.121857  1
  Ga  Ga8  1  0.121857  0.121857  0.634429  1
  Ga  Ga9  1  0.121857  0.121857  0.121857  1
  Ga  Ga10  1  0.365571  0.878143  0.878143  1
  Ga  Ga11  1  0.878143  0.365571  0.878143  1
  Ga  Ga12  1  0.878143  0.878143  0.365571  1
  Ga  Ga13  1  0.878143  0.878143  0.878143  1
  Ga  Ga14  1  0.972250  0.342583  0.342583  1
  Ga  Ga15  1  0.342583  0.972250  0.342583  1
  Ga  Ga16  1  0.342583  0.342583  0.972250  1
  Ga  Ga17  1  0.342583  0.342583  0.342583  1
  Ga  Ga18  1  0.027750  0.657417  0.657417  1
  Ga  Ga19  1  0.657417  0.027750  0.657417  1
  Ga  Ga20  1  0.657417  0.657417  0.027750  1
  Ga  Ga21  1  0.657417  0.657417  0.657417  1
  Os  Os22  1  0.000000  0.000000  0.000000  1
  Os  Os23  1  0.500000  0.000000  0.000000  1
  Os  Os24  1  0.500000  0.000000  0.500000  1
  Os  Os25  1  0.500000  0.500000  0.000000  1
  Os  Os26  1  0.000000  0.500000  0.500000  1
  Os  Os27  1  0.000000  0.500000  0.000000  1
  Os  Os28  1  0.000000  0.000000  0.500000  1
