# generated using pymatgen
data_MgSiO3
_symmetry_space_group_name_H-M   'P 1'
_cell_length_a   18.68860862
_cell_length_b   8.96474753
_cell_length_c   5.27939653
_cell_angle_alpha   90.00000000
_cell_angle_beta   95.23159046
_cell_angle_gamma   90.00000000
_symmetry_Int_Tables_number   1
_chemical_formula_structural   MgSiO3
_chemical_formula_sum   'Mg16 Si16 O48'
_cell_volume   880.81841470
_cell_formula_units_Z   16
loop_
 _symmetry_equiv_pos_site_id
 _symmetry_equiv_pos_as_xyz
  1  'x, y, z'
loop_
 _atom_site_type_symbol
 _atom_site_label
 _atom_site_symmetry_multiplicity
 _atom_site_fract_x
 _atom_site_fract_y
 _atom_site_fract_z
 _atom_site_occupancy
  Mg  Mg0  1  0.812888  0.901846  0.433104  1
  Mg  Mg1  1  0.812888  0.098154  0.933104  1
  Mg  Mg2  1  0.816218  0.259747  0.438041  1
  Mg  Mg3  1  0.816218  0.740253  0.938041  1
  Mg  Mg4  1  0.563584  0.599629  0.813154  1
  Mg  Mg5  1  0.563584  0.400371  0.313154  1
  Mg  Mg6  1  0.564088  0.244553  0.814620  1
  Mg  Mg7  1  0.564088  0.755447  0.314620  1
  Mg  Mg8  1  0.312380  0.900388  0.180538  1
  Mg  Mg9  1  0.312380  0.099612  0.680538  1
  Mg  Mg10  1  0.310845  0.258943  0.182237  1
  Mg  Mg11  1  0.310845  0.741057  0.682237  1
  Mg  Mg12  1  0.060575  0.598419  0.241346  1
  Mg  Mg13  1  0.060575  0.401581  0.741346  1
  Mg  Mg14  1  0.058439  0.761719  0.734990  1
  Mg  Mg15  1  0.058439  0.238281  0.234990  1
  Si  Si16  1  0.963165  0.086318  0.645158  1
  Si  Si17  1  0.963165  0.913682  0.145158  1
  Si  Si18  1  0.911073  0.586590  0.530184  1
  Si  Si19  1  0.911073  0.413410  0.030184  1
  Si  Si20  1  0.711204  0.589290  0.195337  1
  Si  Si21  1  0.711204  0.410710  0.695337  1
  Si  Si22  1  0.666865  0.909177  0.721230  1
  Si  Si23  1  0.666865  0.090823  0.221230  1
  Si  Si24  1  0.416088  0.411190  0.926904  1
  Si  Si25  1  0.416088  0.588810  0.426904  1
  Si  Si26  1  0.460778  0.910302  0.893142  1
  Si  Si27  1  0.460778  0.089698  0.393142  1
  Si  Si28  1  0.163858  0.910039  0.471733  1
  Si  Si29  1  0.163858  0.089961  0.971733  1
  Si  Si30  1  0.206474  0.590076  0.947610  1
  Si  Si31  1  0.206474  0.409924  0.447610  1
  O  O32  1  0.875101  0.089447  0.620000  1
  O  O33  1  0.875101  0.910553  0.120000  1
  O  O34  1  0.003785  0.231048  0.548686  1
  O  O35  1  0.003785  0.768952  0.048686  1
  O  O36  1  0.988554  0.945993  0.456979  1
  O  O37  1  0.988554  0.054007  0.956979  1
  O  O38  1  0.999118  0.590085  0.555521  1
  O  O39  1  0.999118  0.409915  0.055521  1
  O  O40  1  0.885763  0.446434  0.718612  1
  O  O41  1  0.885763  0.553566  0.218612  1
  O  O42  1  0.870257  0.268547  0.125016  1
  O  O43  1  0.870257  0.731453  0.625016  1
  O  O44  1  0.623404  0.588610  0.165749  1
  O  O45  1  0.623404  0.411390  0.665749  1
  O  O46  1  0.750996  0.747388  0.229649  1
  O  O47  1  0.750996  0.252612  0.729649  1
  O  O48  1  0.740918  0.532422  0.919541  1
  O  O49  1  0.740918  0.467578  0.419541  1
  O  O50  1  0.754881  0.907904  0.748073  1
  O  O51  1  0.754881  0.092096  0.248073  1
  O  O52  1  0.626130  0.754126  0.645649  1
  O  O53  1  0.626130  0.245874  0.145649  1
  O  O54  1  0.638042  0.025737  0.487370  1
  O  O55  1  0.638042  0.974263  0.987370  1
  O  O56  1  0.503914  0.590874  0.458402  1
  O  O57  1  0.503914  0.409126  0.958402  1
  O  O58  1  0.371985  0.258578  0.881928  1
  O  O59  1  0.371985  0.741422  0.381928  1
  O  O60  1  0.388812  0.537225  0.708193  1
  O  O61  1  0.388812  0.462775  0.208193  1
  O  O62  1  0.372666  0.907043  0.868872  1
  O  O63  1  0.372666  0.092957  0.368872  1
  O  O64  1  0.502806  0.241368  0.482402  1
  O  O65  1  0.502806  0.758632  0.982402  1
  O  O66  1  0.488061  0.963740  0.615565  1
  O  O67  1  0.488061  0.036260  0.115565  1
  O  O68  1  0.251575  0.910303  0.491765  1
  O  O69  1  0.251575  0.089697  0.991765  1
  O  O70  1  0.123396  0.247936  0.941747  1
  O  O71  1  0.123396  0.752064  0.441747  1
  O  O72  1  0.133698  0.969886  0.744962  1
  O  O73  1  0.133698  0.030114  0.244962  1
  O  O74  1  0.118800  0.592273  0.927195  1
  O  O75  1  0.118800  0.407727  0.427195  1
  O  O76  1  0.249665  0.745074  0.981433  1
  O  O77  1  0.249665  0.254926  0.481433  1
  O  O78  1  0.235152  0.530868  0.673358  1
  O  O79  1  0.235152  0.469132  0.173358  1
