# generated using pymatgen
data_Ta3Fe8Si
_symmetry_space_group_name_H-M   'P 1'
_cell_length_a   4.76298504
_cell_length_b   4.76135547
_cell_length_c   7.76990872
_cell_angle_alpha   90.00000000
_cell_angle_beta   90.00414336
_cell_angle_gamma   60.01131695
_symmetry_Int_Tables_number   1
_chemical_formula_structural   Ta3Fe8Si
_chemical_formula_sum   'Ta3 Fe8 Si1'
_cell_volume   152.61804462
_cell_formula_units_Z   1
loop_
 _symmetry_equiv_pos_site_id
 _symmetry_equiv_pos_as_xyz
  1  'x, y, z'
loop_
 _atom_site_type_symbol
 _atom_site_label
 _atom_site_symmetry_multiplicity
 _atom_site_fract_x
 _atom_site_fract_y
 _atom_site_fract_z
 _atom_site_occupancy
  Ta  Ta0  1  0.666724  0.666638  0.442262  1
  Ta  Ta1  1  0.666712  0.666644  0.066314  1
  Ta  Ta2  1  0.333263  0.333368  0.917401  1
  Fe  Fe3  1  0.000034  0.999983  0.502063  1
  Fe  Fe4  1  0.999926  0.000037  0.007912  1
  Fe  Fe5  1  0.831357  0.337290  0.749326  1
  Fe  Fe6  1  0.337265  0.831368  0.749286  1
  Fe  Fe7  1  0.831357  0.831354  0.749326  1
  Fe  Fe8  1  0.169996  0.660046  0.253170  1
  Fe  Fe9  1  0.660058  0.169971  0.253189  1
  Fe  Fe10  1  0.169996  0.169958  0.253170  1
  Si  Si11  1  0.333314  0.333343  0.556581  1
