# generated using pymatgen
data_MoWSe4
_symmetry_space_group_name_H-M   'P 1'
_cell_length_a   3.32325594
_cell_length_b   3.32320164
_cell_length_c   37.84631358
_cell_angle_alpha   90.00014987
_cell_angle_beta   90.00000000
_cell_angle_gamma   120.00054049
_symmetry_Int_Tables_number   1
_chemical_formula_structural   MoWSe4
_chemical_formula_sum   'Mo2 W2 Se8'
_cell_volume   361.96979628
_cell_formula_units_Z   2
loop_
 _symmetry_equiv_pos_site_id
 _symmetry_equiv_pos_as_xyz
  1  'x, y, z'
loop_
 _atom_site_type_symbol
 _atom_site_label
 _atom_site_symmetry_multiplicity
 _atom_site_fract_x
 _atom_site_fract_y
 _atom_site_fract_z
 _atom_site_occupancy
  Mo  Mo0  1  0.333308  0.666615  0.093918  1
  Mo  Mo1  1  0.333313  0.666626  0.469660  1
  W  W2  1  0.666689  0.333379  0.281798  1
  W  W3  1  0.666691  0.333383  0.657539  1
  Se  Se4  1  0.333354  0.666709  0.326308  1
  Se  Se5  1  0.333355  0.666711  0.702043  1
  Se  Se6  1  0.666637  0.333273  0.049642  1
  Se  Se7  1  0.666650  0.333299  0.425381  1
  Se  Se8  1  0.666644  0.333286  0.138205  1
  Se  Se9  1  0.666649  0.333297  0.513935  1
  Se  Se10  1  0.333355  0.666710  0.237288  1
  Se  Se11  1  0.333356  0.666713  0.613030  1
