# generated using pymatgen
data_TeMoS
_symmetry_space_group_name_H-M   'P 1'
_cell_length_a   3.36021976
_cell_length_b   3.36025782
_cell_length_c   23.86942010
_cell_angle_alpha   90.00008394
_cell_angle_beta   90.00000000
_cell_angle_gamma   119.99962534
_symmetry_Int_Tables_number   1
_chemical_formula_structural   TeMoS
_chemical_formula_sum   'Te2 Mo2 S2'
_cell_volume   233.40729254
_cell_formula_units_Z   2
loop_
 _symmetry_equiv_pos_site_id
 _symmetry_equiv_pos_as_xyz
  1  'x, y, z'
loop_
 _atom_site_type_symbol
 _atom_site_label
 _atom_site_symmetry_multiplicity
 _atom_site_fract_x
 _atom_site_fract_y
 _atom_site_fract_z
 _atom_site_occupancy
  Te  Te0  1  0.333352  0.666705  0.530629  1
  Te  Te1  1  0.333353  0.666707  0.372182  1
  Mo  Mo2  1  0.333305  0.666610  0.150450  1
  Mo  Mo3  1  0.666687  0.333374  0.451441  1
  S  S4  1  0.666652  0.333303  0.087057  1
  S  S5  1  0.666651  0.333301  0.213845  1
