# generated using pymatgen
data_Mg(CuO2)2
_symmetry_space_group_name_H-M   'P 1'
_cell_length_a   5.94437090
_cell_length_b   5.94425566
_cell_length_c   17.72951186
_cell_angle_alpha   59.80137697
_cell_angle_beta   59.79965750
_cell_angle_gamma   59.99587174
_symmetry_Int_Tables_number   1
_chemical_formula_structural   Mg(CuO2)2
_chemical_formula_sum   'Mg6 Cu12 O24'
_cell_volume   441.62699526
_cell_formula_units_Z   6
loop_
 _symmetry_equiv_pos_site_id
 _symmetry_equiv_pos_as_xyz
  1  'x, y, z'
loop_
 _atom_site_type_symbol
 _atom_site_label
 _atom_site_symmetry_multiplicity
 _atom_site_fract_x
 _atom_site_fract_y
 _atom_site_fract_z
 _atom_site_occupancy
  Mg  Mg0  1  0.117983  0.118126  0.048644  1
  Mg  Mg1  1  0.119444  0.119594  0.380501  1
  Mg  Mg2  1  0.498716  0.498720  0.334656  1
  Mg  Mg3  1  0.120642  0.120651  0.712699  1
  Mg  Mg4  1  0.498867  0.498769  0.001097  1
  Mg  Mg5  1  0.877251  0.877226  0.622786  1
  Cu  Cu6  1  0.498840  0.498842  0.166880  1
  Cu  Cu7  1  0.498927  0.001667  0.166851  1
  Cu  Cu8  1  0.499787  0.499805  0.499621  1
  Cu  Cu9  1  0.001758  0.498884  0.166849  1
  Cu  Cu10  1  0.499881  0.001489  0.499619  1
  Cu  Cu11  1  0.500755  0.500762  0.665917  1
  Cu  Cu12  1  0.879928  0.879828  0.286779  1
  Cu  Cu13  1  0.498949  0.498949  0.834032  1
  Cu  Cu14  1  0.001465  0.499907  0.499613  1
  Cu  Cu15  1  0.498953  0.999867  0.834048  1
  Cu  Cu16  1  0.999899  0.498955  0.834047  1
  Cu  Cu17  1  0.877540  0.877469  0.955807  1
  O  O18  1  0.256258  0.256425  0.092020  1
  O  O19  1  0.256056  0.256382  0.243733  1
  O  O20  1  0.256390  0.711116  0.092135  1
  O  O21  1  0.711019  0.256534  0.092143  1
  O  O22  1  0.255222  0.255247  0.425243  1
  O  O23  1  0.285879  0.746487  0.240206  1
  O  O24  1  0.257441  0.257561  0.575739  1
  O  O25  1  0.746665  0.285834  0.240193  1
  O  O26  1  0.746037  0.745592  0.087584  1
  O  O27  1  0.255225  0.713987  0.425239  1
  O  O28  1  0.713908  0.255279  0.425234  1
  O  O29  1  0.746753  0.746562  0.240329  1
  O  O30  1  0.263692  0.263392  0.753468  1
  O  O31  1  0.289206  0.739342  0.577286  1
  O  O32  1  0.739371  0.289221  0.577267  1
  O  O33  1  0.258554  0.258497  0.908118  1
  O  O34  1  0.747293  0.747249  0.419549  1
  O  O35  1  0.263580  0.712739  0.753340  1
  O  O36  1  0.712651  0.263374  0.753399  1
  O  O37  1  0.739478  0.739444  0.577292  1
  O  O38  1  0.277662  0.746960  0.909602  1
  O  O39  1  0.746760  0.277544  0.909659  1
  O  O40  1  0.738711  0.738771  0.761204  1
  O  O41  1  0.746606  0.746949  0.909571  1
