# generated using pymatgen
data_Li3ScCl6
_symmetry_space_group_name_H-M   'P 1'
_cell_length_a   7.01517621
_cell_length_b   7.01517644
_cell_length_c   7.01517643
_cell_angle_alpha   59.99999912
_cell_angle_beta   59.99999875
_cell_angle_gamma   59.99999876
_symmetry_Int_Tables_number   1
_chemical_formula_structural   Li3ScCl6
_chemical_formula_sum   'Li3 Sc1 Cl6'
_cell_volume   244.11854443
_cell_formula_units_Z   1
loop_
 _symmetry_equiv_pos_site_id
 _symmetry_equiv_pos_as_xyz
  1  'x, y, z'
loop_
 _atom_site_type_symbol
 _atom_site_label
 _atom_site_symmetry_multiplicity
 _atom_site_fract_x
 _atom_site_fract_y
 _atom_site_fract_z
 _atom_site_occupancy
  Li  Li0  1  0.250000  0.250000  0.250000  1
  Li  Li1  1  0.750000  0.750000  0.750000  1
  Li  Li2  1  0.500000  0.500000  0.500000  1
  Sc  Sc3  1  -0.000000  0.000000  0.000000  1
  Cl  Cl4  1  0.249082  0.750918  0.249082  1
  Cl  Cl5  1  0.750918  0.750918  0.249082  1
  Cl  Cl6  1  0.750918  0.249082  0.750918  1
  Cl  Cl7  1  0.750918  0.249082  0.249082  1
  Cl  Cl8  1  0.249082  0.750918  0.750918  1
  Cl  Cl9  1  0.249082  0.249082  0.750918  1
