# generated using pymatgen
data_SrAs2F12
_symmetry_space_group_name_H-M   'P 1'
_cell_length_a   9.94162798
_cell_length_b   9.94162798
_cell_length_c   9.94162798
_cell_angle_alpha   90.00000000
_cell_angle_beta   90.00000000
_cell_angle_gamma   90.00000000
_symmetry_Int_Tables_number   1
_chemical_formula_structural   SrAs2F12
_chemical_formula_sum   'Sr4 As8 F48'
_cell_volume   982.59041389
_cell_formula_units_Z   4
loop_
 _symmetry_equiv_pos_site_id
 _symmetry_equiv_pos_as_xyz
  1  'x, y, z'
loop_
 _atom_site_type_symbol
 _atom_site_label
 _atom_site_symmetry_multiplicity
 _atom_site_fract_x
 _atom_site_fract_y
 _atom_site_fract_z
 _atom_site_occupancy
  Sr  Sr0  1  0.500000  0.000000  -0.000000  1
  Sr  Sr1  1  -0.000000  0.500000  -0.000000  1
  Sr  Sr2  1  -0.000000  0.000000  0.500000  1
  Sr  Sr3  1  -0.000000  0.000000  -0.000000  1
  As  As4  1  0.253898  0.253898  0.253898  1
  As  As5  1  0.746102  0.746102  0.253898  1
  As  As6  1  0.746102  0.253898  0.746102  1
  As  As7  1  0.253898  0.746102  0.746102  1
  As  As8  1  0.742903  0.742903  0.742903  1
  As  As9  1  0.257097  0.257097  0.742903  1
  As  As10  1  0.257097  0.742903  0.257097  1
  As  As11  1  0.742903  0.257097  0.257097  1
  F  F12  1  0.128984  0.128984  0.305838  1
  F  F13  1  0.871016  0.871016  0.305838  1
  F  F14  1  0.871016  0.128984  0.694162  1
  F  F15  1  0.305838  0.128984  0.128984  1
  F  F16  1  0.128984  0.871016  0.694162  1
  F  F17  1  0.305838  0.871016  0.871016  1
  F  F18  1  0.694162  0.871016  0.128984  1
  F  F19  1  0.694162  0.128984  0.871016  1
  F  F20  1  0.128984  0.305838  0.128984  1
  F  F21  1  0.128984  0.694162  0.871016  1
  F  F22  1  0.871016  0.694162  0.128984  1
  F  F23  1  0.871016  0.305838  0.871016  1
  F  F24  1  0.370148  0.370148  0.812078  1
  F  F25  1  0.629852  0.629852  0.812078  1
  F  F26  1  0.629852  0.370148  0.187922  1
  F  F27  1  0.812078  0.370148  0.370148  1
  F  F28  1  0.370148  0.629852  0.187922  1
  F  F29  1  0.812078  0.629852  0.629852  1
  F  F30  1  0.187922  0.629852  0.370148  1
  F  F31  1  0.187922  0.370148  0.629852  1
  F  F32  1  0.370148  0.812078  0.370148  1
  F  F33  1  0.370148  0.187922  0.629852  1
  F  F34  1  0.629852  0.187922  0.370148  1
  F  F35  1  0.629852  0.812078  0.629852  1
  F  F36  1  0.132345  0.132345  0.690422  1
  F  F37  1  0.867655  0.867655  0.690422  1
  F  F38  1  0.867655  0.132345  0.309578  1
  F  F39  1  0.690422  0.132345  0.132345  1
  F  F40  1  0.132345  0.867655  0.309578  1
  F  F41  1  0.690422  0.867655  0.867655  1
  F  F42  1  0.309578  0.867655  0.132345  1
  F  F43  1  0.309578  0.132345  0.867655  1
  F  F44  1  0.132345  0.690422  0.132345  1
  F  F45  1  0.132345  0.309578  0.867655  1
  F  F46  1  0.867655  0.309578  0.132345  1
  F  F47  1  0.867655  0.690422  0.867655  1
  F  F48  1  0.366849  0.366849  0.184557  1
  F  F49  1  0.633151  0.633151  0.184557  1
  F  F50  1  0.633151  0.366849  0.815443  1
  F  F51  1  0.184557  0.366849  0.366849  1
  F  F52  1  0.366849  0.633151  0.815443  1
  F  F53  1  0.184557  0.633151  0.633151  1
  F  F54  1  0.815443  0.633151  0.366849  1
  F  F55  1  0.815443  0.366849  0.633151  1
  F  F56  1  0.366849  0.184557  0.366849  1
  F  F57  1  0.366849  0.815443  0.633151  1
  F  F58  1  0.633151  0.815443  0.366849  1
  F  F59  1  0.633151  0.184557  0.633151  1
