# generated using pymatgen
data_CaV2O4
_symmetry_space_group_name_H-M   'P 1'
_cell_length_a   6.27113512
_cell_length_b   6.27646763
_cell_length_c   19.02601820
_cell_angle_alpha   60.33631781
_cell_angle_beta   60.47394598
_cell_angle_gamma   59.95103903
_symmetry_Int_Tables_number   1
_chemical_formula_structural   CaV2O4
_chemical_formula_sum   'Ca6 V12 O24'
_cell_volume   532.55280985
_cell_formula_units_Z   6
loop_
 _symmetry_equiv_pos_site_id
 _symmetry_equiv_pos_as_xyz
  1  'x, y, z'
loop_
 _atom_site_type_symbol
 _atom_site_label
 _atom_site_symmetry_multiplicity
 _atom_site_fract_x
 _atom_site_fract_y
 _atom_site_fract_z
 _atom_site_occupancy
  Ca  Ca0  1  0.120660  0.120803  0.045958  1
  Ca  Ca1  1  0.121907  0.122219  0.377930  1
  Ca  Ca2  1  0.497112  0.496640  0.336273  1
  Ca  Ca3  1  0.121923  0.122650  0.710898  1
  Ca  Ca4  1  0.503128  0.503602  0.996715  1
  Ca  Ca5  1  0.876708  0.877667  0.622575  1
  V  V6  1  0.496004  0.495819  0.166671  1
  V  V7  1  0.496159  0.008158  0.166647  1
  V  V8  1  0.495378  0.494574  0.502783  1
  V  V9  1  0.008326  0.495973  0.166570  1
  V  V10  1  0.495344  0.001606  0.502905  1
  V  V11  1  0.502054  0.502395  0.664371  1
  V  V12  1  0.879177  0.879210  0.287443  1
  V  V13  1  0.498283  0.498807  0.831015  1
  V  V14  1  0.001736  0.495697  0.502343  1
  V  V15  1  0.498076  0.009826  0.831018  1
  V  V16  1  0.009790  0.498132  0.831202  1
  V  V17  1  0.877786  0.877762  0.955621  1
  O  O18  1  0.252812  0.253567  0.099202  1
  O  O19  1  0.264063  0.262754  0.236718  1
  O  O20  1  0.252668  0.696095  0.099255  1
  O  O21  1  0.696156  0.252866  0.099426  1
  O  O22  1  0.244166  0.243937  0.438085  1
  O  O23  1  0.271745  0.757205  0.237891  1
  O  O24  1  0.262144  0.260519  0.572225  1
  O  O25  1  0.757402  0.271886  0.238007  1
  O  O26  1  0.750478  0.751254  0.082463  1
  O  O27  1  0.244554  0.697610  0.437888  1
  O  O28  1  0.697710  0.244035  0.438157  1
  O  O29  1  0.757394  0.756461  0.238047  1
  O  O30  1  0.270565  0.272011  0.754233  1
  O  O31  1  0.307887  0.729570  0.577763  1
  O  O32  1  0.731909  0.307788  0.577022  1
  O  O33  1  0.269600  0.268191  0.897974  1
  O  O34  1  0.753600  0.754128  0.412716  1
  O  O35  1  0.271877  0.694503  0.753785  1
  O  O36  1  0.693861  0.273325  0.752929  1
  O  O37  1  0.732592  0.730489  0.576591  1
  O  O38  1  0.262213  0.763404  0.903656  1
  O  O39  1  0.762313  0.263085  0.903642  1
  O  O40  1  0.729665  0.730575  0.769776  1
  O  O41  1  0.763079  0.763202  0.903611  1
