# generated using pymatgen
data_Te6MoW2
_symmetry_space_group_name_H-M   'P 1'
_cell_length_a   3.55445030
_cell_length_b   3.55400467
_cell_length_c   32.58380087
_cell_angle_alpha   90.00006067
_cell_angle_beta   90.00000000
_cell_angle_gamma   120.00414786
_symmetry_Int_Tables_number   1
_chemical_formula_structural   Te6MoW2
_chemical_formula_sum   'Te6 Mo1 W2'
_cell_volume   356.45495961
_cell_formula_units_Z   1
loop_
 _symmetry_equiv_pos_site_id
 _symmetry_equiv_pos_as_xyz
  1  'x, y, z'
loop_
 _atom_site_type_symbol
 _atom_site_label
 _atom_site_symmetry_multiplicity
 _atom_site_fract_x
 _atom_site_fract_y
 _atom_site_fract_z
 _atom_site_occupancy
  Te  Te0  1  0.333345  0.666691  0.402730  1
  Te  Te1  1  0.666657  0.333313  0.060012  1
  Te  Te2  1  0.666657  0.333313  0.522558  1
  Te  Te3  1  0.666657  0.333313  0.171324  1
  Te  Te4  1  0.666657  0.333312  0.634047  1
  Te  Te5  1  0.333340  0.666680  0.291236  1
  Mo  Mo6  1  0.333289  0.666578  0.115644  1
  W  W7  1  0.333288  0.666576  0.578314  1
  W  W8  1  0.666711  0.333423  0.346975  1
