# generated using pymatgen
data_MnZn4S5
_symmetry_space_group_name_H-M   'P 1'
_cell_length_a   3.87457751
_cell_length_b   3.87457751
_cell_length_c   31.70936002
_cell_angle_alpha   90.00002200
_cell_angle_beta   89.99997800
_cell_angle_gamma   119.99553331
_symmetry_Int_Tables_number   1
_chemical_formula_structural   MnZn4S5
_chemical_formula_sum   'Mn2 Zn8 S10'
_cell_volume   412.27439374
_cell_formula_units_Z   2
loop_
 _symmetry_equiv_pos_site_id
 _symmetry_equiv_pos_as_xyz
  1  'x, y, z'
loop_
 _atom_site_type_symbol
 _atom_site_label
 _atom_site_symmetry_multiplicity
 _atom_site_fract_x
 _atom_site_fract_y
 _atom_site_fract_z
 _atom_site_occupancy
  Mn  Mn0  1  0.666673  0.333327  0.799785  1
  Mn  Mn1  1  0.666676  0.333324  0.999803  1
  Zn  Zn2  1  0.333321  0.666679  0.100227  1
  Zn  Zn3  1  0.333321  0.666679  0.300048  1
  Zn  Zn4  1  0.333321  0.666679  0.500046  1
  Zn  Zn5  1  0.333321  0.666679  0.699809  1
  Zn  Zn6  1  0.333321  0.666679  0.899995  1
  Zn  Zn7  1  0.666680  0.333320  0.200050  1
  Zn  Zn8  1  0.666680  0.333320  0.400046  1
  Zn  Zn9  1  0.666680  0.333320  0.600044  1
  S  S10  1  0.333325  0.666675  0.026243  1
  S  S11  1  0.333323  0.666677  0.225151  1
  S  S12  1  0.333324  0.666676  0.425149  1
  S  S13  1  0.333324  0.666676  0.625078  1
  S  S14  1  0.333325  0.666675  0.826156  1
  S  S15  1  0.666677  0.333323  0.125180  1
  S  S16  1  0.666677  0.333323  0.325148  1
  S  S17  1  0.666677  0.333323  0.525149  1
  S  S18  1  0.666678  0.333322  0.724437  1
  S  S19  1  0.666677  0.333323  0.924457  1
