# generated using pymatgen
data_W2SeS3
_symmetry_space_group_name_H-M   'P 1'
_cell_length_a   3.22128887
_cell_length_b   3.22126829
_cell_length_c   36.40122846
_cell_angle_alpha   89.99990631
_cell_angle_beta   90.00000000
_cell_angle_gamma   120.00021127
_symmetry_Int_Tables_number   1
_chemical_formula_structural   W2SeS3
_chemical_formula_sum   'W4 Se2 S6'
_cell_volume   327.11639889
_cell_formula_units_Z   2
loop_
 _symmetry_equiv_pos_site_id
 _symmetry_equiv_pos_as_xyz
  1  'x, y, z'
loop_
 _atom_site_type_symbol
 _atom_site_label
 _atom_site_symmetry_multiplicity
 _atom_site_fract_x
 _atom_site_fract_y
 _atom_site_fract_z
 _atom_site_occupancy
  W  W0  1  0.333313  0.666625  0.093908  1
  W  W1  1  0.333310  0.666621  0.469656  1
  W  W2  1  0.666689  0.333379  0.281805  1
  W  W3  1  0.666689  0.333378  0.657557  1
  Se  Se4  1  0.333353  0.666706  0.704836  1
  Se  Se5  1  0.333353  0.666708  0.610274  1
  S  S6  1  0.333354  0.666710  0.324704  1
  S  S7  1  0.666648  0.333295  0.050995  1
  S  S8  1  0.666646  0.333292  0.426751  1
  S  S9  1  0.666647  0.333293  0.136823  1
  S  S10  1  0.666642  0.333284  0.512551  1
  S  S11  1  0.333355  0.666711  0.238890  1
