# generated using pymatgen
data_Ca(CoO2)2
_symmetry_space_group_name_H-M   'P 1'
_cell_length_a   3.14091273
_cell_length_b   9.71539374
_cell_length_c   9.88066043
_cell_angle_alpha   90.00304549
_cell_angle_beta   90.01614134
_cell_angle_gamma   89.71752694
_symmetry_Int_Tables_number   1
_chemical_formula_structural   Ca(CoO2)2
_chemical_formula_sum   'Ca4 Co8 O16'
_cell_volume   301.50669030
_cell_formula_units_Z   4
loop_
 _symmetry_equiv_pos_site_id
 _symmetry_equiv_pos_as_xyz
  1  'x, y, z'
loop_
 _atom_site_type_symbol
 _atom_site_label
 _atom_site_symmetry_multiplicity
 _atom_site_fract_x
 _atom_site_fract_y
 _atom_site_fract_z
 _atom_site_occupancy
  Ca  Ca0  1  0.264834  0.751060  0.145792  1
  Ca  Ca1  1  0.264574  0.251031  0.353908  1
  Ca  Ca2  1  0.729253  0.750645  0.644843  1
  Ca  Ca3  1  0.729482  0.250840  0.855424  1
  Co  Co4  1  0.735651  0.569640  0.387826  1
  Co  Co5  1  0.735556  0.069670  0.112130  1
  Co  Co6  1  0.256059  0.066899  0.613550  1
  Co  Co7  1  0.754664  0.433690  0.111635  1
  Co  Co8  1  0.251491  0.432766  0.613069  1
  Co  Co9  1  0.754448  0.933658  0.388460  1
  Co  Co10  1  0.250618  0.932895  0.886715  1
  Co  Co11  1  0.254687  0.566622  0.886363  1
  O  O12  1  0.205240  0.894393  0.523335  1
  O  O13  1  0.749577  0.106341  0.475757  1
  O  O14  1  0.340363  0.997499  0.254115  1
  O  O15  1  0.758455  0.892708  0.023922  1
  O  O16  1  0.749660  0.606153  0.024265  1
  O  O17  1  0.761344  0.249325  0.177579  1
  O  O18  1  0.239334  0.107648  0.975962  1
  O  O19  1  0.234944  0.249015  0.680963  1
  O  O20  1  0.340262  0.497399  0.245837  1
  O  O21  1  0.719203  0.998397  0.750667  1
  O  O22  1  0.239619  0.607657  0.523996  1
  O  O23  1  0.234724  0.748991  0.819213  1
  O  O24  1  0.761981  0.749402  0.322169  1
  O  O25  1  0.719769  0.498492  0.749543  1
  O  O26  1  0.205495  0.394412  0.976975  1
  O  O27  1  0.758712  0.392751  0.475985  1
