# generated using pymatgen
data_Li22(VSn)7
_symmetry_space_group_name_H-M   'P 1'
_cell_length_a   4.64350625
_cell_length_b   4.64350575
_cell_length_c   34.59894443
_cell_angle_alpha   90.01902489
_cell_angle_beta   90.01902489
_cell_angle_gamma   59.97815479
_symmetry_Int_Tables_number   1
_chemical_formula_structural   Li22(VSn)7
_chemical_formula_sum   'Li22 V7 Sn7'
_cell_volume   645.93650431
_cell_formula_units_Z   1
loop_
 _symmetry_equiv_pos_site_id
 _symmetry_equiv_pos_as_xyz
  1  'x, y, z'
loop_
 _atom_site_type_symbol
 _atom_site_label
 _atom_site_symmetry_multiplicity
 _atom_site_fract_x
 _atom_site_fract_y
 _atom_site_fract_z
 _atom_site_occupancy
  Li  Li0  1  0.666674  0.666674  0.475347  1
  Li  Li1  1  0.666902  0.666902  0.975035  1
  Li  Li2  1  0.333105  0.333105  0.024896  1
  Li  Li3  1  0.333270  0.333270  0.524425  1
  Li  Li4  1  0.999985  0.999985  0.332209  1
  Li  Li5  1  -0.000002  -0.000002  0.831860  1
  Li  Li6  1  0.000026  0.000026  0.168374  1
  Li  Li7  1  0.000023  0.000023  0.668204  1
  Li  Li8  1  0.666703  0.666703  0.141746  1
  Li  Li9  1  0.666688  0.666688  0.642239  1
  Li  Li10  1  0.333325  0.333325  0.360068  1
  Li  Li11  1  0.333304  0.333304  0.857934  1
  Li  Li12  1  0.000012  0.000012  0.250668  1
  Li  Li13  1  0.000005  0.000005  0.749876  1
  Li  Li14  1  0.666756  0.666756  0.055591  1
  Li  Li15  1  0.666682  0.666682  0.555344  1
  Li  Li16  1  0.333333  0.333333  0.442348  1
  Li  Li17  1  0.333253  0.333253  0.944300  1
  Li  Li18  1  0.999955  0.999955  0.416749  1
  Li  Li19  1  0.999979  0.999979  0.917614  1
  Li  Li20  1  0.000023  0.000023  0.082517  1
  Li  Li21  1  0.000033  0.000033  0.582191  1
  V  V22  1  0.666682  0.666682  0.223763  1
  V  V23  1  0.666692  0.666692  0.725928  1
  V  V24  1  0.333344  0.333344  0.274278  1
  V  V25  1  0.333322  0.333322  0.774317  1
  V  V26  1  0.666657  0.666657  0.888510  1
  V  V27  1  0.333333  0.333333  0.111351  1
  V  V28  1  0.333349  0.333349  0.611773  1
  Sn  Sn29  1  0.000002  0.000002  0.000065  1
  Sn  Sn30  1  0.999923  0.999923  0.500314  1
  Sn  Sn31  1  0.666673  0.666673  0.303600  1
  Sn  Sn32  1  0.666631  0.666631  0.805877  1
  Sn  Sn33  1  0.333354  0.333354  0.193883  1
  Sn  Sn34  1  0.333344  0.333344  0.694273  1
  Sn  Sn35  1  0.666660  0.666660  0.392531  1
