# generated using pymatgen
data_W2SeS3
_symmetry_space_group_name_H-M   'P 1'
_cell_length_a   3.22250391
_cell_length_b   3.22235804
_cell_length_c   38.47052274
_cell_angle_alpha   90.08876871
_cell_angle_beta   90.00000000
_cell_angle_gamma   120.00149756
_symmetry_Int_Tables_number   1
_chemical_formula_structural   W2SeS3
_chemical_formula_sum   'W4 Se2 S6'
_cell_volume   345.95428745
_cell_formula_units_Z   2
loop_
 _symmetry_equiv_pos_site_id
 _symmetry_equiv_pos_as_xyz
  1  'x, y, z'
loop_
 _atom_site_type_symbol
 _atom_site_label
 _atom_site_symmetry_multiplicity
 _atom_site_fract_x
 _atom_site_fract_y
 _atom_site_fract_z
 _atom_site_occupancy
  W  W0  1  0.334037  0.668073  0.092750  1
  W  W1  1  0.335323  0.670645  0.469601  1
  W  W2  1  0.662241  0.324483  0.280682  1
  W  W3  1  0.668390  0.336781  0.659916  1
  Se  Se4  1  0.668083  0.336166  0.424919  1
  Se  Se5  1  0.669203  0.338405  0.514229  1
  S  S6  1  0.329434  0.658869  0.321189  1
  S  S7  1  0.335558  0.671116  0.700432  1
  S  S8  1  0.666839  0.333678  0.052234  1
  S  S9  1  0.667875  0.335749  0.133266  1
  S  S10  1  0.328448  0.656897  0.240145  1
  S  S11  1  0.334568  0.669137  0.619386  1
