# generated using pymatgen
data_Hf3TaFe8
_symmetry_space_group_name_H-M   'P 1'
_cell_length_a   4.92642507
_cell_length_b   4.92642507
_cell_length_c   7.99647091
_cell_angle_alpha   89.99666347
_cell_angle_beta   90.00333653
_cell_angle_gamma   120.00135539
_symmetry_Int_Tables_number   1
_chemical_formula_structural   Hf3TaFe8
_chemical_formula_sum   'Hf3 Ta1 Fe8'
_cell_volume   168.06869336
_cell_formula_units_Z   1
loop_
 _symmetry_equiv_pos_site_id
 _symmetry_equiv_pos_as_xyz
  1  'x, y, z'
loop_
 _atom_site_type_symbol
 _atom_site_label
 _atom_site_symmetry_multiplicity
 _atom_site_fract_x
 _atom_site_fract_y
 _atom_site_fract_z
 _atom_site_occupancy
  Hf  Hf0  1  0.333306  0.666694  0.439700  1
  Hf  Hf1  1  0.333353  0.666647  0.062610  1
  Hf  Hf2  1  0.666661  0.333339  0.935189  1
  Ta  Ta3  1  0.666623  0.333377  0.562649  1
  Fe  Fe4  1  0.000042  0.999958  0.500811  1
  Fe  Fe5  1  0.000022  0.999978  0.999715  1
  Fe  Fe6  1  0.167817  0.335636  0.747609  1
  Fe  Fe7  1  0.167836  0.832164  0.747599  1
  Fe  Fe8  1  0.664364  0.832183  0.747609  1
  Fe  Fe9  1  0.831588  0.663202  0.252168  1
  Fe  Fe10  1  0.831590  0.168410  0.252174  1
  Fe  Fe11  1  0.336798  0.168412  0.252168  1
