# generated using pymatgen
data_LiPO3
_symmetry_space_group_name_H-M   'P 1'
_cell_length_a   5.52155793
_cell_length_b   13.31298021
_cell_length_c   16.75589351
_cell_angle_alpha   99.19583484
_cell_angle_beta   90.00000000
_cell_angle_gamma   90.00000000
_symmetry_Int_Tables_number   1
_chemical_formula_structural   LiPO3
_chemical_formula_sum   'Li20 P20 O60'
_cell_volume   1215.86884539
_cell_formula_units_Z   20
loop_
 _symmetry_equiv_pos_site_id
 _symmetry_equiv_pos_as_xyz
  1  'x, y, z'
loop_
 _atom_site_type_symbol
 _atom_site_label
 _atom_site_symmetry_multiplicity
 _atom_site_fract_x
 _atom_site_fract_y
 _atom_site_fract_z
 _atom_site_occupancy
  Li  Li0  1  0.494607  0.944697  0.818220  1
  Li  Li1  1  0.505393  0.444697  0.318220  1
  Li  Li2  1  0.484419  0.822835  0.934004  1
  Li  Li3  1  0.515581  0.322835  0.434004  1
  Li  Li4  1  0.505784  0.702414  0.049457  1
  Li  Li5  1  0.494216  0.202414  0.549457  1
  Li  Li6  1  0.507224  0.582846  0.164548  1
  Li  Li7  1  0.492776  0.082846  0.664548  1
  Li  Li8  1  0.992783  0.512460  0.241566  1
  Li  Li9  1  0.007217  0.012460  0.741566  1
  Li  Li10  1  0.521194  0.942549  0.318286  1
  Li  Li11  1  0.478806  0.442549  0.818286  1
  Li  Li12  1  0.476313  0.821455  0.433730  1
  Li  Li13  1  0.523687  0.321455  0.933730  1
  Li  Li14  1  0.533250  0.702271  0.550453  1
  Li  Li15  1  0.466750  0.202271  0.050453  1
  Li  Li16  1  0.477737  0.582495  0.667016  1
  Li  Li17  1  0.522263  0.082495  0.167016  1
  Li  Li18  1  0.960889  0.510463  0.743634  1
  Li  Li19  1  0.039111  0.010463  0.243634  1
  P  P20  1  0.185377  0.001193  0.000413  1
  P  P21  1  0.814623  0.501193  0.500413  1
  P  P22  1  0.843317  0.887668  0.093280  1
  P  P23  1  0.156683  0.387668  0.593280  1
  P  P24  1  0.188444  0.795924  0.197061  1
  P  P25  1  0.811556  0.295924  0.697061  1
  P  P26  1  0.828977  0.716706  0.308311  1
  P  P27  1  0.171023  0.216706  0.808311  1
  P  P28  1  0.159739  0.616650  0.408249  1
  P  P29  1  0.840261  0.116650  0.908249  1
  P  P30  1  0.843930  0.909487  0.574567  1
  P  P31  1  0.156070  0.409487  0.074567  1
  P  P32  1  0.174322  0.808986  0.674438  1
  P  P33  1  0.825678  0.308986  0.174438  1
  P  P34  1  0.812278  0.730132  0.786455  1
  P  P35  1  0.187722  0.230132  0.286455  1
  P  P36  1  0.151901  0.637722  0.889856  1
  P  P37  1  0.848099  0.137722  0.389856  1
  P  P38  1  0.809867  0.524425  0.982845  1
  P  P39  1  0.190133  0.024425  0.482845  1
  O  O40  1  0.069000  0.905428  0.035413  1
  O  O41  1  0.931000  0.405428  0.535413  1
  O  O42  1  0.951087  0.800450  0.140628  1
  O  O43  1  0.048913  0.300450  0.640628  1
  O  O44  1  0.080018  0.757206  0.275856  1
  O  O45  1  0.919982  0.257206  0.775856  1
  O  O46  1  0.926681  0.685355  0.392259  1
  O  O47  1  0.073319  0.185355  0.892259  1
  O  O48  1  0.942022  0.058299  0.978148  1
  O  O49  1  0.057978  0.558299  0.478148  1
  O  O50  1  0.076781  0.840686  0.590622  1
  O  O51  1  0.923219  0.340686  0.090622  1
  O  O52  1  0.921841  0.772630  0.709404  1
  O  O53  1  0.078159  0.272630  0.209404  1
  O  O54  1  0.049265  0.726756  0.843555  1
  O  O55  1  0.950735  0.226756  0.343555  1
  O  O56  1  0.918787  0.618048  0.943480  1
  O  O57  1  0.081213  0.118048  0.443480  1
  O  O58  1  0.944691  0.967956  0.504327  1
  O  O59  1  0.055309  0.467956  0.004327  1
  O  O60  1  0.322795  0.955284  0.926111  1
  O  O61  1  0.677205  0.455284  0.426111  1
  O  O62  1  0.313918  0.071166  0.066074  1
  O  O63  1  0.686082  0.571166  0.566074  1
  O  O64  1  0.643576  0.836723  0.041349  1
  O  O65  1  0.356424  0.336724  0.541349  1
  O  O66  1  0.795305  0.982201  0.153257  1
  O  O67  1  0.204695  0.482201  0.653257  1
  O  O68  1  0.351974  0.714989  0.154647  1
  O  O69  1  0.648026  0.214989  0.654647  1
  O  O70  1  0.281781  0.902007  0.224590  1
  O  O71  1  0.718219  0.402007  0.724590  1
  O  O72  1  0.751546  0.622035  0.252705  1
  O  O73  1  0.248454  0.122035  0.752705  1
  O  O74  1  0.656290  0.803128  0.330648  1
  O  O75  1  0.343710  0.303128  0.830648  1
  O  O76  1  0.215121  0.542257  0.332841  1
  O  O77  1  0.784879  0.042257  0.832841  1
  O  O78  1  0.355777  0.685603  0.446708  1
  O  O79  1  0.644223  0.185603  0.946708  1
  O  O80  1  0.649890  0.839056  0.536665  1
  O  O81  1  0.350110  0.339056  0.036665  1
  O  O82  1  0.785996  0.984307  0.649394  1
  O  O83  1  0.214004  0.484307  0.149394  1
  O  O84  1  0.340793  0.720379  0.651785  1
  O  O85  1  0.659207  0.220379  0.151785  1
  O  O86  1  0.258044  0.903853  0.728542  1
  O  O87  1  0.741956  0.403853  0.228542  1
  O  O88  1  0.725734  0.623095  0.758375  1
  O  O89  1  0.274266  0.123095  0.258375  1
  O  O90  1  0.642950  0.808921  0.828801  1
  O  O91  1  0.357050  0.308921  0.328801  1
  O  O92  1  0.205272  0.543593  0.829973  1
  O  O93  1  0.794728  0.043593  0.329973  1
  O  O94  1  0.347295  0.687356  0.944360  1
  O  O95  1  0.652705  0.187356  0.444360  1
  O  O96  1  0.677470  0.452379  0.919559  1
  O  O97  1  0.322530  0.952379  0.419559  1
  O  O98  1  0.678914  0.572944  0.057634  1
  O  O99  1  0.321086  0.072944  0.557634  1
