# generated using pymatgen
data_Tm3(Si3Pd10)2
_symmetry_space_group_name_H-M   'P 1'
_cell_length_a   8.68109156
_cell_length_b   8.68109156
_cell_length_c   8.68109156
_cell_angle_alpha   60.00000000
_cell_angle_beta   60.00000000
_cell_angle_gamma   60.00000000
_symmetry_Int_Tables_number   1
_chemical_formula_structural   Tm3(Si3Pd10)2
_chemical_formula_sum   'Tm3 Si6 Pd20'
_cell_volume   462.60253941
_cell_formula_units_Z   1
loop_
 _symmetry_equiv_pos_site_id
 _symmetry_equiv_pos_as_xyz
  1  'x, y, z'
loop_
 _atom_site_type_symbol
 _atom_site_label
 _atom_site_symmetry_multiplicity
 _atom_site_fract_x
 _atom_site_fract_y
 _atom_site_fract_z
 _atom_site_occupancy
  Tm  Tm0  1  0.750000  0.750000  0.750000  1
  Tm  Tm1  1  0.250000  0.250000  0.250000  1
  Tm  Tm2  1  0.000000  0.000000  -0.000000  1
  Si  Si3  1  0.731986  0.731986  0.268014  1
  Si  Si4  1  0.268014  0.268014  0.731986  1
  Si  Si5  1  0.731986  0.268014  0.731986  1
  Si  Si6  1  0.268014  0.731986  0.268014  1
  Si  Si7  1  0.268014  0.731986  0.731986  1
  Si  Si8  1  0.731986  0.268014  0.268014  1
  Pd  Pd9  1  0.617581  0.617581  0.617581  1
  Pd  Pd10  1  0.382419  0.382419  0.382419  1
  Pd  Pd11  1  0.147258  0.617581  0.617581  1
  Pd  Pd12  1  0.617581  0.147258  0.617581  1
  Pd  Pd13  1  0.852742  0.382419  0.382419  1
  Pd  Pd14  1  0.382419  0.852742  0.382419  1
  Pd  Pd15  1  0.617581  0.617581  0.147258  1
  Pd  Pd16  1  0.382419  0.382419  0.852742  1
  Pd  Pd17  1  -0.000000  0.000000  0.655104  1
  Pd  Pd18  1  0.000000  -0.000000  0.344896  1
  Pd  Pd19  1  0.344896  0.655104  -0.000000  1
  Pd  Pd20  1  0.655104  0.344896  0.000000  1
  Pd  Pd21  1  -0.000000  0.655104  0.000000  1
  Pd  Pd22  1  0.655104  0.000000  0.344896  1
  Pd  Pd23  1  0.000000  0.344896  -0.000000  1
  Pd  Pd24  1  0.344896  -0.000000  0.655104  1
  Pd  Pd25  1  0.655104  -0.000000  0.000000  1
  Pd  Pd26  1  0.344896  -0.000000  0.000000  1
  Pd  Pd27  1  0.000000  0.655104  0.344896  1
  Pd  Pd28  1  -0.000000  0.344896  0.655104  1
