# generated using pymatgen
data_UOF3
_symmetry_space_group_name_H-M   'P 1'
_cell_length_a   3.81197606
_cell_length_b   3.81197606
_cell_length_c   5.11323768
_cell_angle_alpha   90.00000000
_cell_angle_beta   90.00000000
_cell_angle_gamma   120.00000000
_symmetry_Int_Tables_number   1
_chemical_formula_structural   UOF3
_chemical_formula_sum   'U1 O1 F3'
_cell_volume   64.34679801
_cell_formula_units_Z   1
loop_
 _symmetry_equiv_pos_site_id
 _symmetry_equiv_pos_as_xyz
  1  'x, y, z'
loop_
 _atom_site_type_symbol
 _atom_site_label
 _atom_site_symmetry_multiplicity
 _atom_site_fract_x
 _atom_site_fract_y
 _atom_site_fract_z
 _atom_site_occupancy
  U  U0  1  0.666667  0.333333  0.980629  1
  O  O1  1  0.333333  0.666667  0.113973  1
  F  F2  1  0.333333  0.666667  0.662589  1
  F  F3  1  0.000000  -0.000000  0.863932  1
  F  F4  1  0.666667  0.333333  0.378877  1
