# generated using pymatgen
data_Sr7Mn4O15
_symmetry_space_group_name_H-M   'P 1'
_cell_length_a   6.89448528
_cell_length_b   9.77042834
_cell_length_c   10.58891321
_cell_angle_alpha   90.00000000
_cell_angle_beta   91.60002090
_cell_angle_gamma   90.00000000
_symmetry_Int_Tables_number   1
_chemical_formula_structural   Sr7Mn4O15
_chemical_formula_sum   'Sr14 Mn8 O30'
_cell_volume   713.01304979
_cell_formula_units_Z   2
loop_
 _symmetry_equiv_pos_site_id
 _symmetry_equiv_pos_as_xyz
  1  'x, y, z'
loop_
 _atom_site_type_symbol
 _atom_site_label
 _atom_site_symmetry_multiplicity
 _atom_site_fract_x
 _atom_site_fract_y
 _atom_site_fract_z
 _atom_site_occupancy
  Sr  Sr0  1  0.179155  0.500802  0.333836  1
  Sr  Sr1  1  0.822461  0.998212  0.167575  1
  Sr  Sr2  1  0.822461  0.501788  0.667575  1
  Sr  Sr3  1  0.179155  0.999198  0.833836  1
  Sr  Sr4  1  0.998878  0.313185  0.963902  1
  Sr  Sr5  1  0.002268  0.814859  0.535576  1
  Sr  Sr6  1  0.002268  0.685141  0.035576  1
  Sr  Sr7  1  0.998878  0.186815  0.463902  1
  Sr  Sr8  1  0.499256  0.494059  0.004984  1
  Sr  Sr9  1  0.499256  0.005941  0.504984  1
  Sr  Sr10  1  0.351736  0.351131  0.695867  1
  Sr  Sr11  1  0.647890  0.847643  0.803983  1
  Sr  Sr12  1  0.647890  0.652357  0.303983  1
  Sr  Sr13  1  0.351736  0.148869  0.195867  1
  Mn  Mn14  1  0.780825  0.330333  0.219061  1
  Mn  Mn15  1  0.220578  0.833442  0.279513  1
  Mn  Mn16  1  0.220578  0.666558  0.779513  1
  Mn  Mn17  1  0.780825  0.169667  0.719061  1
  Mn  Mn18  1  0.576282  0.333453  0.423994  1
  Mn  Mn19  1  0.424198  0.832006  0.074017  1
  Mn  Mn20  1  0.424198  0.667994  0.574017  1
  Mn  Mn21  1  0.576282  0.166547  0.923994  1
  O  O22  1  0.682663  0.280317  0.583364  1
  O  O23  1  0.315637  0.774829  0.916158  1
  O  O24  1  0.315637  0.725171  0.416158  1
  O  O25  1  0.682663  0.219683  0.083364  1
  O  O26  1  0.337174  0.253677  0.453245  1
  O  O27  1  0.664204  0.752720  0.046970  1
  O  O28  1  0.664204  0.747280  0.546970  1
  O  O29  1  0.337174  0.246323  0.953245  1
  O  O30  1  0.839944  0.417043  0.381254  1
  O  O31  1  0.159708  0.917823  0.116111  1
  O  O32  1  0.159708  0.582177  0.616111  1
  O  O33  1  0.839944  0.082957  0.881254  1
  O  O34  1  0.679402  0.325278  0.837306  1
  O  O35  1  0.321425  0.824922  0.663167  1
  O  O36  1  0.321425  0.675078  0.163167  1
  O  O37  1  0.679402  0.174722  0.337306  1
  O  O38  1  0.026010  0.249638  0.207773  1
  O  O39  1  0.974463  0.752276  0.291016  1
  O  O40  1  0.974463  0.747724  0.791016  1
  O  O41  1  0.026010  0.250362  0.707773  1
  O  O42  1  0.507553  0.399056  0.251810  1
  O  O43  1  0.492604  0.901640  0.242887  1
  O  O44  1  0.492604  0.598360  0.742887  1
  O  O45  1  0.507553  0.100944  0.751810  1
  O  O46  1  0.841644  0.480496  0.120106  1
  O  O47  1  0.160596  0.983384  0.378738  1
  O  O48  1  0.160596  0.516616  0.878738  1
  O  O49  1  0.841644  0.019504  0.620106  1
  O  O50  1  0.496448  0.502523  0.493788  1
  O  O51  1  0.496448  0.997477  0.993788  1
