# generated using pymatgen
data_MoPbO3
_symmetry_space_group_name_H-M   'P 1'
_cell_length_a   4.08256505
_cell_length_b   4.11755346
_cell_length_c   4.12252015
_cell_angle_alpha   91.12733514
_cell_angle_beta   89.38076561
_cell_angle_gamma   90.65674220
_symmetry_Int_Tables_number   1
_chemical_formula_structural   MoPbO3
_chemical_formula_sum   'Mo1 Pb1 O3'
_cell_volume   69.27845867
_cell_formula_units_Z   1
loop_
 _symmetry_equiv_pos_site_id
 _symmetry_equiv_pos_as_xyz
  1  'x, y, z'
loop_
 _atom_site_type_symbol
 _atom_site_label
 _atom_site_symmetry_multiplicity
 _atom_site_fract_x
 _atom_site_fract_y
 _atom_site_fract_z
 _atom_site_occupancy
  Mo  Mo0  1  0.499935  0.499852  0.499892  1
  Pb  Pb1  1  0.999878  0.999877  0.998982  1
  O  O2  1  0.500125  0.500192  0.000038  1
  O  O3  1  0.500133  0.999936  0.500530  1
  O  O4  1  0.999925  0.500140  0.500556  1
