# generated using pymatgen
data_CrRe13B6
_symmetry_space_group_name_H-M   'P 1'
_cell_length_a   4.92665078
_cell_length_b   7.50588572
_cell_length_c   7.50588572
_cell_angle_alpha   119.98098301
_cell_angle_beta   89.99008643
_cell_angle_gamma   90.00991357
_symmetry_Int_Tables_number   1
_chemical_formula_structural   CrRe13B6
_chemical_formula_sum   'Cr1 Re13 B6'
_cell_volume   240.41938884
_cell_formula_units_Z   1
loop_
 _symmetry_equiv_pos_site_id
 _symmetry_equiv_pos_as_xyz
  1  'x, y, z'
loop_
 _atom_site_type_symbol
 _atom_site_label
 _atom_site_symmetry_multiplicity
 _atom_site_fract_x
 _atom_site_fract_y
 _atom_site_fract_z
 _atom_site_occupancy
  Cr  Cr0  1  0.408539  0.333371  0.666629  1
  Re  Re1  1  0.452413  0.543744  0.456256  1
  Re  Re2  1  0.453204  0.913114  0.456476  1
  Re  Re3  1  0.453204  0.543524  0.086886  1
  Re  Re4  1  0.951705  0.452815  0.547185  1
  Re  Re5  1  0.952624  0.093979  0.547042  1
  Re  Re6  1  0.952624  0.452958  0.906021  1
  Re  Re7  1  0.909063  0.666603  0.333397  1
  Re  Re8  1  0.250790  0.123605  0.876395  1
  Re  Re9  1  0.250268  0.752649  0.876146  1
  Re  Re10  1  0.250268  0.123854  0.247351  1
  Re  Re11  1  0.750703  0.877469  0.122531  1
  Re  Re12  1  0.750138  0.245050  0.122696  1
  Re  Re13  1  0.750138  0.877304  0.754950  1
  B  B14  1  0.161106  0.809868  0.190132  1
  B  B15  1  0.160672  0.380414  0.189975  1
  B  B16  1  0.160672  0.810025  0.619586  1
  B  B17  1  0.652861  0.192463  0.807537  1
  B  B18  1  0.652504  0.614881  0.807687  1
  B  B19  1  0.652504  0.192313  0.385119  1
