# generated using pymatgen
data_Hf2(Co7B2)3
_symmetry_space_group_name_H-M   'P 1'
_cell_length_a   7.46818427
_cell_length_b   7.46818427
_cell_length_c   7.46818427
_cell_angle_alpha   60.00000000
_cell_angle_beta   60.00000000
_cell_angle_gamma   60.00000000
_symmetry_Int_Tables_number   1
_chemical_formula_structural   Hf2(Co7B2)3
_chemical_formula_sum   'Hf2 Co21 B6'
_cell_volume   294.53036638
_cell_formula_units_Z   1
loop_
 _symmetry_equiv_pos_site_id
 _symmetry_equiv_pos_as_xyz
  1  'x, y, z'
loop_
 _atom_site_type_symbol
 _atom_site_label
 _atom_site_symmetry_multiplicity
 _atom_site_fract_x
 _atom_site_fract_y
 _atom_site_fract_z
 _atom_site_occupancy
  Hf  Hf0  1  0.250000  0.250000  0.250000  1
  Hf  Hf1  1  0.750000  0.750000  0.750000  1
  Co  Co2  1  0.000000  -0.000000  -0.000000  1
  Co  Co3  1  0.844074  0.385309  0.385309  1
  Co  Co4  1  0.385309  0.844074  0.385309  1
  Co  Co5  1  0.385309  0.385309  0.844074  1
  Co  Co6  1  0.385309  0.385309  0.385309  1
  Co  Co7  1  0.155926  0.614691  0.614691  1
  Co  Co8  1  0.614691  0.155926  0.614691  1
  Co  Co9  1  0.614691  0.614691  0.155926  1
  Co  Co10  1  0.614691  0.614691  0.614691  1
  Co  Co11  1  0.662516  0.000000  -0.000000  1
  Co  Co12  1  0.662516  0.000000  0.337484  1
  Co  Co13  1  0.662516  0.337484  -0.000000  1
  Co  Co14  1  -0.000000  0.662516  0.337484  1
  Co  Co15  1  -0.000000  0.662516  0.000000  1
  Co  Co16  1  0.337484  0.662516  -0.000000  1
  Co  Co17  1  0.000000  0.337484  0.662516  1
  Co  Co18  1  0.337484  -0.000000  0.662516  1
  Co  Co19  1  0.000000  -0.000000  0.662516  1
  Co  Co20  1  0.337484  -0.000000  0.000000  1
  Co  Co21  1  -0.000000  0.337484  0.000000  1
  Co  Co22  1  -0.000000  0.000000  0.337484  1
  B  B23  1  0.725228  0.274772  0.274772  1
  B  B24  1  0.725228  0.274772  0.725228  1
  B  B25  1  0.725228  0.725228  0.274772  1
  B  B26  1  0.274772  0.725228  0.725228  1
  B  B27  1  0.274772  0.725228  0.274772  1
  B  B28  1  0.274772  0.274772  0.725228  1
