# generated using pymatgen
data_Ta3AlCr8
_symmetry_space_group_name_H-M   'P 1'
_cell_length_a   4.86385942
_cell_length_b   4.86421825
_cell_length_c   7.99090158
_cell_angle_alpha   89.99813272
_cell_angle_beta   89.99920652
_cell_angle_gamma   60.00157224
_symmetry_Int_Tables_number   1
_chemical_formula_structural   Ta3AlCr8
_chemical_formula_sum   'Ta3 Al1 Cr8'
_cell_volume   163.72966015
_cell_formula_units_Z   1
loop_
 _symmetry_equiv_pos_site_id
 _symmetry_equiv_pos_as_xyz
  1  'x, y, z'
loop_
 _atom_site_type_symbol
 _atom_site_label
 _atom_site_symmetry_multiplicity
 _atom_site_fract_x
 _atom_site_fract_y
 _atom_site_fract_z
 _atom_site_occupancy
  Ta  Ta0  1  0.666664  0.666668  0.441285  1
  Ta  Ta1  1  0.666675  0.666663  0.060857  1
  Ta  Ta2  1  0.333322  0.333338  0.936677  1
  Al  Al3  1  0.333351  0.333323  0.563378  1
  Cr  Cr4  1  0.000064  -0.000022  0.499749  1
  Cr  Cr5  1  0.000030  -0.000006  0.999090  1
  Cr  Cr6  1  0.830707  0.338537  0.748352  1
  Cr  Cr7  1  0.338523  0.830731  0.748373  1
  Cr  Cr8  1  0.830716  0.830749  0.748347  1
  Cr  Cr9  1  0.170560  0.658837  0.251303  1
  Cr  Cr10  1  0.658833  0.170584  0.251285  1
  Cr  Cr11  1  0.170555  0.170598  0.251304  1
