# generated using pymatgen
data_CeZr3Mn8
_symmetry_space_group_name_H-M   'P 1'
_cell_length_a   5.08641327
_cell_length_b   5.08722395
_cell_length_c   8.08121496
_cell_angle_alpha   90.00000000
_cell_angle_beta   90.00418748
_cell_angle_gamma   59.99472765
_symmetry_Int_Tables_number   1
_chemical_formula_structural   CeZr3Mn8
_chemical_formula_sum   'Ce1 Zr3 Mn8'
_cell_volume   181.08259688
_cell_formula_units_Z   1
loop_
 _symmetry_equiv_pos_site_id
 _symmetry_equiv_pos_as_xyz
  1  'x, y, z'
loop_
 _atom_site_type_symbol
 _atom_site_label
 _atom_site_symmetry_multiplicity
 _atom_site_fract_x
 _atom_site_fract_y
 _atom_site_fract_z
 _atom_site_occupancy
  Ce  Ce0  1  0.333395  0.333302  0.556619  1
  Zr  Zr1  1  0.666656  0.666672  0.437440  1
  Zr  Zr2  1  0.666692  0.666654  0.063010  1
  Zr  Zr3  1  0.333371  0.333315  0.937786  1
  Mn  Mn4  1  0.999893  0.000054  0.499014  1
  Mn  Mn5  1  0.999915  0.000042  0.004054  1
  Mn  Mn6  1  0.833707  0.332514  0.757875  1
  Mn  Mn7  1  0.332421  0.833790  0.757964  1
  Mn  Mn8  1  0.833707  0.833779  0.757875  1
  Mn  Mn9  1  0.166250  0.667658  0.242787  1
  Mn  Mn10  1  0.667745  0.166128  0.242788  1
  Mn  Mn11  1  0.166250  0.166093  0.242787  1
