# generated using pymatgen
data_CsNbC6
_symmetry_space_group_name_H-M   'P 1'
_cell_length_a   7.94955620
_cell_length_b   7.94945308
_cell_length_c   7.94937871
_cell_angle_alpha   60.00190869
_cell_angle_beta   60.00015703
_cell_angle_gamma   60.00026023
_symmetry_Int_Tables_number   1
_chemical_formula_structural   CsNbC6
_chemical_formula_sum   'Cs2 Nb2 C12'
_cell_volume   355.22699108
_cell_formula_units_Z   2
loop_
 _symmetry_equiv_pos_site_id
 _symmetry_equiv_pos_as_xyz
  1  'x, y, z'
loop_
 _atom_site_type_symbol
 _atom_site_label
 _atom_site_symmetry_multiplicity
 _atom_site_fract_x
 _atom_site_fract_y
 _atom_site_fract_z
 _atom_site_occupancy
  Cs  Cs0  1  0.249997  0.249999  0.249999  1
  Cs  Cs1  1  0.750000  0.750001  0.750000  1
  Nb  Nb2  1  0.999999  0.999997  0.000001  1
  Nb  Nb3  1  0.500000  0.499995  0.499999  1
  C  C4  1  0.693648  0.306354  0.306355  1
  C  C5  1  0.306352  0.693645  0.693645  1
  C  C6  1  0.306384  0.693618  0.306383  1
  C  C7  1  0.306384  0.306385  0.693617  1
  C  C8  1  0.693618  0.306380  0.693618  1
  C  C9  1  0.693617  0.693616  0.306383  1
  C  C10  1  0.805723  0.194283  0.194281  1
  C  C11  1  0.194279  0.805718  0.805714  1
  C  C12  1  0.194253  0.805752  0.194254  1
  C  C13  1  0.194252  0.194253  0.805751  1
  C  C14  1  0.805746  0.194250  0.805747  1
  C  C15  1  0.805745  0.805748  0.194250  1
