# generated using pymatgen
data_MnZn3S4
_symmetry_space_group_name_H-M   'P 1'
_cell_length_a   3.88063494
_cell_length_b   3.88063216
_cell_length_c   12.73254089
_cell_angle_alpha   90.00066418
_cell_angle_beta   89.99930588
_cell_angle_gamma   120.00112045
_symmetry_Int_Tables_number   1
_chemical_formula_structural   MnZn3S4
_chemical_formula_sum   'Mn1 Zn3 S4'
_cell_volume   166.05275145
_cell_formula_units_Z   1
loop_
 _symmetry_equiv_pos_site_id
 _symmetry_equiv_pos_as_xyz
  1  'x, y, z'
loop_
 _atom_site_type_symbol
 _atom_site_label
 _atom_site_symmetry_multiplicity
 _atom_site_fract_x
 _atom_site_fract_y
 _atom_site_fract_z
 _atom_site_occupancy
  Mn  Mn0  1  0.333339  0.666647  0.248005  1
  Zn  Zn1  1  0.333333  0.666669  0.749478  1
  Zn  Zn2  1  0.666663  0.333337  0.997044  1
  Zn  Zn3  1  0.666661  0.333341  0.502485  1
  S  S4  1  0.333334  0.666670  0.058807  1
  S  S5  1  0.333331  0.666674  0.563554  1
  S  S6  1  0.666676  0.333325  0.317396  1
  S  S7  1  0.666663  0.333337  0.811233  1
