# generated using pymatgen
data_Na(SeO3)4
_symmetry_space_group_name_H-M   'P 1'
_cell_length_a   5.41135214
_cell_length_b   6.31127085
_cell_length_c   20.09283736
_cell_angle_alpha   98.36661383
_cell_angle_beta   90.00000000
_cell_angle_gamma   90.00000000
_symmetry_Int_Tables_number   1
_chemical_formula_structural   Na(SeO3)4
_chemical_formula_sum   'Na2 Se8 O24'
_cell_volume   678.91755842
_cell_formula_units_Z   2
loop_
 _symmetry_equiv_pos_site_id
 _symmetry_equiv_pos_as_xyz
  1  'x, y, z'
loop_
 _atom_site_type_symbol
 _atom_site_label
 _atom_site_symmetry_multiplicity
 _atom_site_fract_x
 _atom_site_fract_y
 _atom_site_fract_z
 _atom_site_occupancy
  Na  Na0  1  0.219474  0.103624  0.149219  1
  Na  Na1  1  0.780526  0.603624  0.649219  1
  Se  Se2  1  0.356801  0.592136  0.089701  1
  Se  Se3  1  0.643199  0.092136  0.589701  1
  Se  Se4  1  0.929360  0.046734  0.980338  1
  Se  Se5  1  0.070640  0.546734  0.480338  1
  Se  Se6  1  0.903499  0.605336  0.204514  1
  Se  Se7  1  0.096501  0.105336  0.704514  1
  Se  Se8  1  0.522169  0.110326  0.321892  1
  Se  Se9  1  0.477831  0.610326  0.821892  1
  O  O10  1  0.488946  0.454349  0.145928  1
  O  O11  1  0.511054  0.954349  0.645928  1
  O  O12  1  0.467641  0.834791  0.088575  1
  O  O13  1  0.532359  0.334791  0.588575  1
  O  O14  1  0.313709  0.442744  0.017441  1
  O  O15  1  0.686291  0.942744  0.517441  1
  O  O16  1  0.968611  0.788301  0.963281  1
  O  O17  1  0.031390  0.288301  0.463281  1
  O  O18  1  0.921238  0.156238  0.059154  1
  O  O19  1  0.078762  0.656238  0.559154  1
  O  O20  1  0.897698  0.190720  0.920247  1
  O  O21  1  0.102302  0.690720  0.420247  1
  O  O22  1  0.995028  0.364469  0.217282  1
  O  O23  1  0.004972  0.864469  0.717282  1
  O  O24  1  0.003652  0.802510  0.262521  1
  O  O25  1  0.996348  0.302510  0.762521  1
  O  O26  1  0.045222  0.665408  0.125329  1
  O  O27  1  0.954778  0.165408  0.625329  1
  O  O28  1  0.519234  0.357957  0.358443  1
  O  O29  1  0.480766  0.857957  0.858443  1
  O  O30  1  0.554481  0.911110  0.363785  1
  O  O31  1  0.445519  0.411110  0.863785  1
  O  O32  1  0.491464  0.061846  0.240147  1
  O  O33  1  0.508536  0.561846  0.740147  1
