# generated using pymatgen
data_MoW3Se8
_symmetry_space_group_name_H-M   'P 1'
_cell_length_a   3.32652746
_cell_length_b   3.32653633
_cell_length_c   37.84093853
_cell_angle_alpha   89.99886963
_cell_angle_beta   90.00000000
_cell_angle_gamma   119.99991178
_symmetry_Int_Tables_number   1
_chemical_formula_structural   MoW3Se8
_chemical_formula_sum   'Mo1 W3 Se8'
_cell_volume   362.64049655
_cell_formula_units_Z   1
loop_
 _symmetry_equiv_pos_site_id
 _symmetry_equiv_pos_as_xyz
  1  'x, y, z'
loop_
 _atom_site_type_symbol
 _atom_site_label
 _atom_site_symmetry_multiplicity
 _atom_site_fract_x
 _atom_site_fract_y
 _atom_site_fract_z
 _atom_site_occupancy
  Mo  Mo0  1  0.666692  0.333384  0.281772  1
  W  W1  1  0.333304  0.666608  0.093912  1
  W  W2  1  0.333310  0.666620  0.469632  1
  W  W3  1  0.666692  0.333384  0.657547  1
  Se  Se4  1  0.333351  0.666702  0.326029  1
  Se  Se5  1  0.333352  0.666706  0.701969  1
  Se  Se6  1  0.666643  0.333285  0.049484  1
  Se  Se7  1  0.666637  0.333272  0.425243  1
  Se  Se8  1  0.666647  0.333293  0.138362  1
  Se  Se9  1  0.666649  0.333296  0.514081  1
  Se  Se10  1  0.333369  0.666740  0.237615  1
  Se  Se11  1  0.333355  0.666710  0.613103  1
