# generated using pymatgen
data_MgZn4O5
_symmetry_space_group_name_H-M   'P 1'
_cell_length_a   3.28942535
_cell_length_b   3.28963133
_cell_length_c   26.33962481
_cell_angle_alpha   90.00000000
_cell_angle_beta   89.99989028
_cell_angle_gamma   59.99791807
_symmetry_Int_Tables_number   1
_chemical_formula_structural   MgZn4O5
_chemical_formula_sum   'Mg2 Zn8 O10'
_cell_volume   246.83024220
_cell_formula_units_Z   2
loop_
 _symmetry_equiv_pos_site_id
 _symmetry_equiv_pos_as_xyz
  1  'x, y, z'
loop_
 _atom_site_type_symbol
 _atom_site_label
 _atom_site_symmetry_multiplicity
 _atom_site_fract_x
 _atom_site_fract_y
 _atom_site_fract_z
 _atom_site_occupancy
  Mg  Mg0  1  0.333346  0.333327  0.723271  1
  Mg  Mg1  1  0.333349  0.333325  0.923239  1
  Zn  Zn2  1  0.666649  0.666676  0.024146  1
  Zn  Zn3  1  0.666649  0.666675  0.224001  1
  Zn  Zn4  1  0.666648  0.666676  0.423997  1
  Zn  Zn5  1  0.666648  0.666676  0.624535  1
  Zn  Zn6  1  0.666651  0.666675  0.824682  1
  Zn  Zn7  1  0.333353  0.333323  0.123991  1
  Zn  Zn8  1  0.333349  0.333325  0.323997  1
  Zn  Zn9  1  0.333351  0.333324  0.523993  1
  O  O10  1  0.666650  0.666675  0.100241  1
  O  O11  1  0.666650  0.666675  0.300217  1
  O  O12  1  0.666650  0.666675  0.500223  1
  O  O13  1  0.666653  0.666674  0.700948  1
  O  O14  1  0.666656  0.666672  0.900963  1
  O  O15  1  0.333350  0.333325  0.200204  1
  O  O16  1  0.333349  0.333326  0.400210  1
  O  O17  1  0.333350  0.333325  0.600293  1
  O  O18  1  0.333349  0.333326  0.799538  1
  O  O19  1  0.333349  0.333326  0.999453  1
