# generated using pymatgen
data_TeWSe
_symmetry_space_group_name_H-M   'P 1'
_cell_length_a   3.43770848
_cell_length_b   3.43770051
_cell_length_c   39.19360337
_cell_angle_alpha   90.00033031
_cell_angle_beta   90.00000000
_cell_angle_gamma   120.00007670
_symmetry_Int_Tables_number   1
_chemical_formula_structural   TeWSe
_chemical_formula_sum   'Te4 W4 Se4'
_cell_volume   401.12762598
_cell_formula_units_Z   4
loop_
 _symmetry_equiv_pos_site_id
 _symmetry_equiv_pos_as_xyz
  1  'x, y, z'
loop_
 _atom_site_type_symbol
 _atom_site_label
 _atom_site_symmetry_multiplicity
 _atom_site_fract_x
 _atom_site_fract_y
 _atom_site_fract_z
 _atom_site_occupancy
  Te  Te0  1  0.333352  0.666705  0.705154  1
  Te  Te1  1  0.666647  0.333293  0.422016  1
  Te  Te2  1  0.666648  0.333294  0.517244  1
  Te  Te3  1  0.333351  0.666704  0.609930  1
  W  W4  1  0.333309  0.666617  0.093924  1
  W  W5  1  0.333311  0.666623  0.469643  1
  W  W6  1  0.666687  0.333374  0.281796  1
  W  W7  1  0.666690  0.333379  0.657581  1
  Se  Se8  1  0.333367  0.666734  0.323715  1
  Se  Se9  1  0.666643  0.333286  0.052027  1
  Se  Se10  1  0.666645  0.333288  0.135836  1
  Se  Se11  1  0.333351  0.666703  0.239882  1
