# generated using pymatgen
data_Ta6Be15Ni8
_symmetry_space_group_name_H-M   'P 1'
_cell_length_a   7.55159186
_cell_length_b   7.55159186
_cell_length_c   7.55159186
_cell_angle_alpha   60.00000000
_cell_angle_beta   60.00000000
_cell_angle_gamma   60.00000000
_symmetry_Int_Tables_number   1
_chemical_formula_structural   Ta6Be15Ni8
_chemical_formula_sum   'Ta6 Be15 Ni8'
_cell_volume   304.50927861
_cell_formula_units_Z   1
loop_
 _symmetry_equiv_pos_site_id
 _symmetry_equiv_pos_as_xyz
  1  'x, y, z'
loop_
 _atom_site_type_symbol
 _atom_site_label
 _atom_site_symmetry_multiplicity
 _atom_site_fract_x
 _atom_site_fract_y
 _atom_site_fract_z
 _atom_site_occupancy
  Ta  Ta0  1  0.703951  0.703951  0.296049  1
  Ta  Ta1  1  0.296049  0.296049  0.703951  1
  Ta  Ta2  1  0.703951  0.296049  0.703951  1
  Ta  Ta3  1  0.296049  0.703951  0.296049  1
  Ta  Ta4  1  0.296049  0.703951  0.703951  1
  Ta  Ta5  1  0.703951  0.296049  0.296049  1
  Be  Be6  1  0.673114  0.673114  0.673114  1
  Be  Be7  1  0.326886  0.326886  0.326886  1
  Be  Be8  1  0.980659  0.673114  0.673114  1
  Be  Be9  1  0.673114  0.980659  0.673114  1
  Be  Be10  1  0.019341  0.326886  0.326886  1
  Be  Be11  1  0.326886  0.019341  0.326886  1
  Be  Be12  1  0.673114  0.673114  0.980659  1
  Be  Be13  1  0.326886  0.326886  0.019341  1
  Be  Be14  1  -0.000000  0.000000  0.500000  1
  Be  Be15  1  0.500000  0.500000  0.000000  1
  Be  Be16  1  -0.000000  0.500000  0.000000  1
  Be  Be17  1  0.500000  0.000000  0.500000  1
  Be  Be18  1  0.500000  0.000000  0.000000  1
  Be  Be19  1  -0.000000  0.500000  0.500000  1
  Be  Be20  1  -0.000000  0.000000  0.000000  1
  Ni  Ni21  1  0.877306  0.877306  0.877306  1
  Ni  Ni22  1  0.122693  0.122693  0.122693  1
  Ni  Ni23  1  0.368080  0.877306  0.877306  1
  Ni  Ni24  1  0.877306  0.368080  0.877306  1
  Ni  Ni25  1  0.631919  0.122693  0.122693  1
  Ni  Ni26  1  0.122693  0.631919  0.122693  1
  Ni  Ni27  1  0.877306  0.877306  0.368080  1
  Ni  Ni28  1  0.122693  0.122693  0.631919  1
