# generated using pymatgen
data_Na3YI6
_symmetry_space_group_name_H-M   'P 1'
_cell_length_a   8.63772759
_cell_length_b   8.63772809
_cell_length_c   8.63772807
_cell_angle_alpha   59.99999854
_cell_angle_beta   59.99999780
_cell_angle_gamma   59.99999789
_symmetry_Int_Tables_number   1
_chemical_formula_structural   Na3YI6
_chemical_formula_sum   'Na3 Y1 I6'
_cell_volume   455.70473660
_cell_formula_units_Z   1
loop_
 _symmetry_equiv_pos_site_id
 _symmetry_equiv_pos_as_xyz
  1  'x, y, z'
loop_
 _atom_site_type_symbol
 _atom_site_label
 _atom_site_symmetry_multiplicity
 _atom_site_fract_x
 _atom_site_fract_y
 _atom_site_fract_z
 _atom_site_occupancy
  Na  Na0  1  0.250000  0.250000  0.250000  1
  Na  Na1  1  0.750000  0.750000  0.750000  1
  Na  Na2  1  0.500000  0.500000  0.500000  1
  Y  Y3  1  0.000000  0.000000  0.000000  1
  I  I4  1  0.246228  0.753772  0.246228  1
  I  I5  1  0.753772  0.753772  0.246228  1
  I  I6  1  0.753772  0.246228  0.753772  1
  I  I7  1  0.753772  0.246228  0.246228  1
  I  I8  1  0.246228  0.753772  0.753772  1
  I  I9  1  0.246228  0.246228  0.753772  1
