# generated using pymatgen
data_Cs3GdCl6
_symmetry_space_group_name_H-M   'P 1'
_cell_length_a   8.43011026
_cell_length_b   8.43011071
_cell_length_c   8.43011069
_cell_angle_alpha   59.99999863
_cell_angle_beta   59.99999801
_cell_angle_gamma   59.99999809
_symmetry_Int_Tables_number   1
_chemical_formula_structural   Cs3GdCl6
_chemical_formula_sum   'Cs3 Gd1 Cl6'
_cell_volume   423.62813445
_cell_formula_units_Z   1
loop_
 _symmetry_equiv_pos_site_id
 _symmetry_equiv_pos_as_xyz
  1  'x, y, z'
loop_
 _atom_site_type_symbol
 _atom_site_label
 _atom_site_symmetry_multiplicity
 _atom_site_fract_x
 _atom_site_fract_y
 _atom_site_fract_z
 _atom_site_occupancy
  Cs  Cs0  1  0.250000  0.250000  0.250000  1
  Cs  Cs1  1  0.750000  0.750000  0.750000  1
  Cs  Cs2  1  0.500000  0.500000  0.500000  1
  Gd  Gd3  1  0.000000  -0.000000  0.000000  1
  Cl  Cl4  1  0.224182  0.775818  0.224182  1
  Cl  Cl5  1  0.775818  0.775818  0.224182  1
  Cl  Cl6  1  0.775818  0.224182  0.775818  1
  Cl  Cl7  1  0.775818  0.224182  0.224182  1
  Cl  Cl8  1  0.224182  0.775818  0.775818  1
  Cl  Cl9  1  0.224182  0.224182  0.775818  1
