# generated using pymatgen
data_Ca(BiAu3)2
_symmetry_space_group_name_H-M   'P 1'
_cell_length_a   5.70269447
_cell_length_b   5.70269447
_cell_length_c   14.07125425
_cell_angle_alpha   90.00000000
_cell_angle_beta   90.00000000
_cell_angle_gamma   120.00000000
_symmetry_Int_Tables_number   1
_chemical_formula_structural   Ca(BiAu3)2
_chemical_formula_sum   'Ca2 Bi4 Au12'
_cell_volume   396.29961495
_cell_formula_units_Z   2
loop_
 _symmetry_equiv_pos_site_id
 _symmetry_equiv_pos_as_xyz
  1  'x, y, z'
loop_
 _atom_site_type_symbol
 _atom_site_label
 _atom_site_symmetry_multiplicity
 _atom_site_fract_x
 _atom_site_fract_y
 _atom_site_fract_z
 _atom_site_occupancy
  Ca  Ca0  1  0.666667  0.333333  0.583756  1
  Ca  Ca1  1  0.333333  0.666667  0.913496  1
  Bi  Bi2  1  0.333333  0.666667  0.665689  1
  Bi  Bi3  1  0.000000  0.000000  0.006225  1
  Bi  Bi4  1  0.666667  0.333333  0.328714  1
  Bi  Bi5  1  -0.000000  0.000000  0.251725  1
  Au  Au6  1  0.499400  0.500600  0.123076  1
  Au  Au7  1  0.166684  0.833316  0.459136  1
  Au  Au8  1  0.833233  0.166767  0.793259  1
  Au  Au9  1  0.499400  0.998800  0.123076  1
  Au  Au10  1  0.166684  0.333368  0.459136  1
  Au  Au11  1  0.833233  0.666467  0.793259  1
  Au  Au12  1  0.333333  0.666667  0.291958  1
  Au  Au13  1  0.000000  -0.000000  0.624417  1
  Au  Au14  1  0.666667  0.333333  0.957608  1
  Au  Au15  1  0.001200  0.500600  0.123076  1
  Au  Au16  1  0.666632  0.833316  0.459136  1
  Au  Au17  1  0.333533  0.166767  0.793259  1
