# generated using pymatgen
data_Mg3SbN
_symmetry_space_group_name_H-M   'P 1'
_cell_length_a   6.18766290
_cell_length_b   6.18768228
_cell_length_c   8.76388807
_cell_angle_alpha   90.00000000
_cell_angle_beta   90.00000000
_cell_angle_gamma   90.00001926
_symmetry_Int_Tables_number   1
_chemical_formula_structural   Mg3SbN
_chemical_formula_sum   'Mg12 Sb4 N4'
_cell_volume   335.54554230
_cell_formula_units_Z   4
loop_
 _symmetry_equiv_pos_site_id
 _symmetry_equiv_pos_as_xyz
  1  'x, y, z'
loop_
 _atom_site_type_symbol
 _atom_site_label
 _atom_site_symmetry_multiplicity
 _atom_site_fract_x
 _atom_site_fract_y
 _atom_site_fract_z
 _atom_site_occupancy
  Mg  Mg0  1  0.750019  0.750021  0.999990  1
  Mg  Mg1  1  0.749980  0.250021  0.500010  1
  Mg  Mg2  1  0.249981  0.249979  0.499990  1
  Mg  Mg3  1  0.250020  0.749979  0.000010  1
  Mg  Mg4  1  0.249981  0.249979  0.000010  1
  Mg  Mg5  1  0.250020  0.749979  0.499990  1
  Mg  Mg6  1  0.750019  0.750021  0.500010  1
  Mg  Mg7  1  0.749980  0.250021  0.999990  1
  Mg  Mg8  1  0.500015  0.999967  0.250000  1
  Mg  Mg9  1  0.999984  0.499967  0.250000  1
  Mg  Mg10  1  0.499985  0.000033  0.750000  1
  Mg  Mg11  1  0.000016  0.500033  0.750000  1
  Sb  Sb12  1  0.500002  0.499982  0.250000  1
  Sb  Sb13  1  0.999998  0.999982  0.250000  1
  Sb  Sb14  1  0.499998  0.500018  0.750000  1
  Sb  Sb15  1  0.000002  0.000018  0.750000  1
  N  N16  1  -0.000000  0.500000  0.000000  1
  N  N17  1  0.500000  -0.000000  0.500000  1
  N  N18  1  -0.000000  0.500000  0.500000  1
  N  N19  1  0.500000  -0.000000  -0.000000  1
