# generated using pymatgen
data_Zn(WO2)2
_symmetry_space_group_name_H-M   'P 1'
_cell_length_a   6.48161543
_cell_length_b   6.47387585
_cell_length_c   18.96504793
_cell_angle_alpha   59.39328495
_cell_angle_beta   59.21461864
_cell_angle_gamma   59.93935537
_symmetry_Int_Tables_number   1
_chemical_formula_structural   Zn(WO2)2
_chemical_formula_sum   'Zn6 W12 O24'
_cell_volume   556.46669411
_cell_formula_units_Z   6
loop_
 _symmetry_equiv_pos_site_id
 _symmetry_equiv_pos_as_xyz
  1  'x, y, z'
loop_
 _atom_site_type_symbol
 _atom_site_label
 _atom_site_symmetry_multiplicity
 _atom_site_fract_x
 _atom_site_fract_y
 _atom_site_fract_z
 _atom_site_occupancy
  Zn  Zn0  1  0.117218  0.115428  0.050843  1
  Zn  Zn1  1  0.117445  0.117205  0.381395  1
  Zn  Zn2  1  0.491836  0.491395  0.340664  1
  Zn  Zn3  1  0.125579  0.127102  0.707613  1
  Zn  Zn4  1  0.494448  0.494163  0.006946  1
  Zn  Zn5  1  0.879078  0.880721  0.619452  1
  W  W6  1  0.499972  0.496813  0.167035  1
  W  W7  1  0.500713  0.998863  0.166541  1
  W  W8  1  0.500040  0.501043  0.497362  1
  W  W9  1  0.002022  0.496837  0.167039  1
  W  W10  1  0.500121  0.003518  0.497317  1
  W  W11  1  0.500361  0.502224  0.665197  1
  W  W12  1  0.897603  0.895867  0.269204  1
  W  W13  1  0.500925  0.503135  0.833436  1
  W  W14  1  0.002485  0.501222  0.497280  1
  W  W15  1  0.501035  0.001214  0.833773  1
  W  W16  1  0.999126  0.503209  0.833741  1
  W  W17  1  0.896189  0.896174  0.939618  1
  O  O18  1  0.260472  0.256308  0.086445  1
  O  O19  1  0.258094  0.255338  0.242870  1
  O  O20  1  0.257457  0.722325  0.087515  1
  O  O21  1  0.725034  0.255307  0.086629  1
  O  O22  1  0.256183  0.255841  0.418308  1
  O  O23  1  0.275583  0.737040  0.249850  1
  O  O24  1  0.255762  0.258340  0.575443  1
  O  O25  1  0.738363  0.273747  0.249888  1
  O  O26  1  0.739139  0.732060  0.096369  1
  O  O27  1  0.255044  0.728997  0.418669  1
  O  O28  1  0.728926  0.255225  0.418440  1
  O  O29  1  0.736731  0.735867  0.250289  1
  O  O30  1  0.256592  0.257518  0.754448  1
  O  O31  1  0.271227  0.742845  0.580521  1
  O  O32  1  0.741329  0.272788  0.580165  1
  O  O33  1  0.256824  0.259945  0.910240  1
  O  O34  1  0.739565  0.739244  0.425457  1
  O  O35  1  0.257073  0.726492  0.754077  1
  O  O36  1  0.724246  0.259296  0.753670  1
  O  O37  1  0.740929  0.743520  0.580357  1
  O  O38  1  0.278544  0.740651  0.916327  1
  O  O39  1  0.740338  0.279633  0.914690  1
  O  O40  1  0.742123  0.742883  0.758778  1
  O  O41  1  0.738227  0.742652  0.916100  1
