# generated using pymatgen
data_TlBi3F10
_symmetry_space_group_name_H-M   'P 1'
_cell_length_a   8.59692574
_cell_length_b   8.59692574
_cell_length_c   8.59692574
_cell_angle_alpha   60.00000000
_cell_angle_beta   60.00000000
_cell_angle_gamma   60.00000000
_symmetry_Int_Tables_number   1
_chemical_formula_structural   TlBi3F10
_chemical_formula_sum   'Tl2 Bi6 F20'
_cell_volume   449.27735421
_cell_formula_units_Z   2
loop_
 _symmetry_equiv_pos_site_id
 _symmetry_equiv_pos_as_xyz
  1  'x, y, z'
loop_
 _atom_site_type_symbol
 _atom_site_label
 _atom_site_symmetry_multiplicity
 _atom_site_fract_x
 _atom_site_fract_y
 _atom_site_fract_z
 _atom_site_occupancy
  Tl  Tl0  1  0.750000  0.750000  0.750000  1
  Tl  Tl1  1  0.250000  0.250000  0.250000  1
  Bi  Bi2  1  0.758923  0.758923  0.241077  1
  Bi  Bi3  1  0.241077  0.241077  0.758923  1
  Bi  Bi4  1  0.758923  0.241077  0.758923  1
  Bi  Bi5  1  0.241077  0.758923  0.241077  1
  Bi  Bi6  1  0.241077  0.758923  0.758923  1
  Bi  Bi7  1  0.758923  0.241077  0.241077  1
  F  F8  1  0.500000  0.500000  0.170803  1
  F  F9  1  0.500000  0.500000  0.829197  1
  F  F10  1  0.829197  0.170803  0.500000  1
  F  F11  1  0.170803  0.829197  0.500000  1
  F  F12  1  0.500000  0.170803  0.500000  1
  F  F13  1  0.170803  0.500000  0.829197  1
  F  F14  1  0.500000  0.829197  0.500000  1
  F  F15  1  0.829197  0.500000  0.170803  1
  F  F16  1  0.170803  0.500000  0.500000  1
  F  F17  1  0.829197  0.500000  0.500000  1
  F  F18  1  0.500000  0.170803  0.829197  1
  F  F19  1  0.500000  0.829197  0.170803  1
  F  F20  1  0.886645  0.886645  0.886645  1
  F  F21  1  0.113355  0.113355  0.113355  1
  F  F22  1  0.340065  0.886645  0.886645  1
  F  F23  1  0.886645  0.340065  0.886645  1
  F  F24  1  0.659935  0.113355  0.113355  1
  F  F25  1  0.113355  0.659935  0.113355  1
  F  F26  1  0.886645  0.886645  0.340065  1
  F  F27  1  0.113355  0.113355  0.659935  1
