# generated using pymatgen
data_Y2Ga3Cu
_symmetry_space_group_name_H-M   'P 1'
_cell_length_a   4.37417584
_cell_length_b   4.37223774
_cell_length_c   7.29686774
_cell_angle_alpha   90.00000000
_cell_angle_beta   90.00299201
_cell_angle_gamma   60.01464823
_symmetry_Int_Tables_number   1
_chemical_formula_structural   Y2Ga3Cu
_chemical_formula_sum   'Y2 Ga3 Cu1'
_cell_volume   120.87352754
_cell_formula_units_Z   1
loop_
 _symmetry_equiv_pos_site_id
 _symmetry_equiv_pos_as_xyz
  1  'x, y, z'
loop_
 _atom_site_type_symbol
 _atom_site_label
 _atom_site_symmetry_multiplicity
 _atom_site_fract_x
 _atom_site_fract_y
 _atom_site_fract_z
 _atom_site_occupancy
  Y  Y0  1  0.999917  0.000041  0.768950  1
  Y  Y1  1  0.000065  -0.000033  0.237024  1
  Ga  Ga2  1  0.666988  0.666506  0.018586  1
  Ga  Ga3  1  0.666942  0.666529  0.459191  1
  Ga  Ga4  1  0.333091  0.333454  0.543463  1
  Cu  Cu5  1  0.332996  0.333502  0.972786  1
