# generated using pymatgen
data_Zn(CoO2)2
_symmetry_space_group_name_H-M   'P 1'
_cell_length_a   5.97652851
_cell_length_b   5.97311316
_cell_length_c   17.89217866
_cell_angle_alpha   60.06110761
_cell_angle_beta   60.07510832
_cell_angle_gamma   59.56059219
_symmetry_Int_Tables_number   1
_chemical_formula_structural   Zn(CoO2)2
_chemical_formula_sum   'Zn6 Co12 O24'
_cell_volume   450.58666954
_cell_formula_units_Z   6
loop_
 _symmetry_equiv_pos_site_id
 _symmetry_equiv_pos_as_xyz
  1  'x, y, z'
loop_
 _atom_site_type_symbol
 _atom_site_label
 _atom_site_symmetry_multiplicity
 _atom_site_fract_x
 _atom_site_fract_y
 _atom_site_fract_z
 _atom_site_occupancy
  Zn  Zn0  1  0.123689  0.123887  0.042998  1
  Zn  Zn1  1  0.123092  0.124346  0.375661  1
  Zn  Zn2  1  0.500432  0.499982  0.999896  1
  Zn  Zn3  1  0.125641  0.125794  0.707660  1
  Zn  Zn4  1  0.875317  0.875062  0.291612  1
  Zn  Zn5  1  0.876037  0.875176  0.624783  1
  Co  Co6  1  0.001932  0.499816  0.166825  1
  Co  Co7  1  0.498830  0.499203  0.166388  1
  Co  Co8  1  0.999438  0.499545  0.500077  1
  Co  Co9  1  0.499532  0.001700  0.166935  1
  Co  Co10  1  0.502517  0.501313  0.331783  1
  Co  Co11  1  0.500292  0.500013  0.500579  1
  Co  Co12  1  0.000595  0.500284  0.832905  1
  Co  Co13  1  0.499825  0.999409  0.500032  1
  Co  Co14  1  0.500122  0.000454  0.832976  1
  Co  Co15  1  0.497423  0.498447  0.668157  1
  Co  Co16  1  0.500085  0.500242  0.833015  1
  Co  Co17  1  0.876289  0.876311  0.956982  1
  O  O18  1  0.249736  0.249918  0.094057  1
  O  O19  1  0.257422  0.257465  0.241806  1
  O  O20  1  0.249910  0.719268  0.093527  1
  O  O21  1  0.719284  0.249935  0.093586  1
  O  O22  1  0.283306  0.737922  0.246752  1
  O  O23  1  0.259254  0.257682  0.422083  1
  O  O24  1  0.737251  0.283700  0.247002  1
  O  O25  1  0.742652  0.742454  0.091376  1
  O  O26  1  0.263886  0.714235  0.420351  1
  O  O27  1  0.265405  0.259060  0.572658  1
  O  O28  1  0.741797  0.741966  0.244993  1
  O  O29  1  0.716133  0.262826  0.420493  1
  O  O30  1  0.281988  0.736951  0.580264  1
  O  O31  1  0.260548  0.261077  0.753077  1
  O  O32  1  0.737380  0.283423  0.579709  1
  O  O33  1  0.735493  0.741794  0.426531  1
  O  O34  1  0.258115  0.258324  0.908294  1
  O  O35  1  0.260779  0.718950  0.753058  1
  O  O36  1  0.738788  0.739323  0.579302  1
  O  O37  1  0.718776  0.261438  0.752686  1
  O  O38  1  0.276464  0.751745  0.906819  1
  O  O39  1  0.741362  0.741211  0.758823  1
  O  O40  1  0.751578  0.276659  0.906708  1
  O  O41  1  0.751607  0.751690  0.906782  1
