# generated using pymatgen
data_Zr6Zn23Ge
_symmetry_space_group_name_H-M   'P 1'
_cell_length_a   8.81229488
_cell_length_b   8.81229488
_cell_length_c   8.81229488
_cell_angle_alpha   60.00000000
_cell_angle_beta   60.00000000
_cell_angle_gamma   60.00000000
_symmetry_Int_Tables_number   1
_chemical_formula_structural   Zr6Zn23Ge
_chemical_formula_sum   'Zr6 Zn23 Ge1'
_cell_volume   483.89603816
_cell_formula_units_Z   1
loop_
 _symmetry_equiv_pos_site_id
 _symmetry_equiv_pos_as_xyz
  1  'x, y, z'
loop_
 _atom_site_type_symbol
 _atom_site_label
 _atom_site_symmetry_multiplicity
 _atom_site_fract_x
 _atom_site_fract_y
 _atom_site_fract_z
 _atom_site_occupancy
  Zr  Zr0  1  0.713120  0.713120  0.286880  1
  Zr  Zr1  1  0.286880  0.286880  0.713120  1
  Zr  Zr2  1  0.713120  0.286880  0.713120  1
  Zr  Zr3  1  0.286880  0.713120  0.286880  1
  Zr  Zr4  1  0.286880  0.713120  0.713120  1
  Zr  Zr5  1  0.713120  0.286880  0.286880  1
  Zn  Zn6  1  0.876928  0.876928  0.876928  1
  Zn  Zn7  1  0.123072  0.123072  0.123072  1
  Zn  Zn8  1  0.369217  0.876928  0.876928  1
  Zn  Zn9  1  0.876928  0.369217  0.876928  1
  Zn  Zn10  1  0.630784  0.123072  0.123072  1
  Zn  Zn11  1  0.123072  0.630784  0.123072  1
  Zn  Zn12  1  0.876928  0.876928  0.369217  1
  Zn  Zn13  1  0.123072  0.123072  0.630784  1
  Zn  Zn14  1  0.000000  -0.000000  0.500000  1
  Zn  Zn15  1  0.500000  0.500000  0.000000  1
  Zn  Zn16  1  0.000000  0.500000  0.000000  1
  Zn  Zn17  1  0.500000  -0.000000  0.500000  1
  Zn  Zn18  1  0.500000  -0.000000  0.000000  1
  Zn  Zn19  1  0.000000  0.500000  0.500000  1
  Zn  Zn20  1  0.664144  0.664144  0.664144  1
  Zn  Zn21  1  0.335856  0.335856  0.335856  1
  Zn  Zn22  1  0.007567  0.664144  0.664144  1
  Zn  Zn23  1  0.664144  0.007567  0.664144  1
  Zn  Zn24  1  0.992433  0.335856  0.335856  1
  Zn  Zn25  1  0.335856  0.992433  0.335856  1
  Zn  Zn26  1  0.664144  0.664144  0.007567  1
  Zn  Zn27  1  0.335856  0.335856  0.992433  1
  Zn  Zn28  1  0.000000  -0.000000  0.000000  1
  Ge  Ge29  1  0.500000  0.500000  0.500000  1
