# generated using pymatgen
data_Sn2Pd2Au
_symmetry_space_group_name_H-M   'P 1'
_cell_length_a   4.53730475
_cell_length_b   4.53527392
_cell_length_c   5.69743024
_cell_angle_alpha   90.00000000
_cell_angle_beta   90.00556477
_cell_angle_gamma   60.01481109
_symmetry_Int_Tables_number   1
_chemical_formula_structural   Sn2Pd2Au
_chemical_formula_sum   'Sn2 Pd2 Au1'
_cell_volume   101.54906181
_cell_formula_units_Z   1
loop_
 _symmetry_equiv_pos_site_id
 _symmetry_equiv_pos_as_xyz
  1  'x, y, z'
loop_
 _atom_site_type_symbol
 _atom_site_label
 _atom_site_symmetry_multiplicity
 _atom_site_fract_x
 _atom_site_fract_y
 _atom_site_fract_z
 _atom_site_occupancy
  Sn  Sn0  1  0.332957  0.333521  0.736155  1
  Sn  Sn1  1  0.666688  0.666656  0.312543  1
  Pd  Pd2  1  0.333547  0.333227  0.227684  1
  Pd  Pd3  1  0.000078  0.999961  0.492206  1
  Au  Au4  1  0.000130  0.999935  0.981412  1
