# generated using pymatgen
data_BeSiN2
_symmetry_space_group_name_H-M   'P 1'
_cell_length_a   2.89362526
_cell_length_b   2.89363580
_cell_length_c   4.71333755
_cell_angle_alpha   90.00000000
_cell_angle_beta   90.00016605
_cell_angle_gamma   59.99987949
_symmetry_Int_Tables_number   1
_chemical_formula_structural   BeSiN2
_chemical_formula_sum   'Be1 Si1 N2'
_cell_volume   34.17785502
_cell_formula_units_Z   1
loop_
 _symmetry_equiv_pos_site_id
 _symmetry_equiv_pos_as_xyz
  1  'x, y, z'
loop_
 _atom_site_type_symbol
 _atom_site_label
 _atom_site_symmetry_multiplicity
 _atom_site_fract_x
 _atom_site_fract_y
 _atom_site_fract_z
 _atom_site_occupancy
  Be  Be0  1  0.666665  0.666667  0.519152  1
  Si  Si1  1  0.333333  0.333333  0.981609  1
  N  N2  1  0.666666  0.666667  0.125188  1
  N  N3  1  0.333335  0.333332  0.624051  1
