# generated using pymatgen
data_Ce6Mg23Sn
_symmetry_space_group_name_H-M   'P 1'
_cell_length_a   10.24419907
_cell_length_b   10.24419907
_cell_length_c   10.24419907
_cell_angle_alpha   60.00000000
_cell_angle_beta   60.00000000
_cell_angle_gamma   60.00000000
_symmetry_Int_Tables_number   1
_chemical_formula_structural   Ce6Mg23Sn
_chemical_formula_sum   'Ce6 Mg23 Sn1'
_cell_volume   760.18453467
_cell_formula_units_Z   1
loop_
 _symmetry_equiv_pos_site_id
 _symmetry_equiv_pos_as_xyz
  1  'x, y, z'
loop_
 _atom_site_type_symbol
 _atom_site_label
 _atom_site_symmetry_multiplicity
 _atom_site_fract_x
 _atom_site_fract_y
 _atom_site_fract_z
 _atom_site_occupancy
  Ce  Ce0  1  0.782435  0.217565  0.217565  1
  Ce  Ce1  1  0.782435  0.217565  0.782435  1
  Ce  Ce2  1  0.782435  0.782435  0.217565  1
  Ce  Ce3  1  0.217565  0.782435  0.782435  1
  Ce  Ce4  1  0.217565  0.782435  0.217565  1
  Ce  Ce5  1  0.217565  0.217565  0.782435  1
  Mg  Mg6  1  0.492678  0.169107  0.169107  1
  Mg  Mg7  1  0.169107  0.492678  0.169107  1
  Mg  Mg8  1  0.169107  0.169107  0.492678  1
  Mg  Mg9  1  0.169107  0.169107  0.169107  1
  Mg  Mg10  1  0.507322  0.830893  0.830893  1
  Mg  Mg11  1  0.830893  0.507322  0.830893  1
  Mg  Mg12  1  0.830893  0.830893  0.507322  1
  Mg  Mg13  1  0.830893  0.830893  0.830893  1
  Mg  Mg14  1  0.864130  0.378623  0.378623  1
  Mg  Mg15  1  0.378623  0.864130  0.378623  1
  Mg  Mg16  1  0.378623  0.378623  0.864130  1
  Mg  Mg17  1  0.378623  0.378623  0.378623  1
  Mg  Mg18  1  0.135870  0.621377  0.621377  1
  Mg  Mg19  1  0.621377  0.135870  0.621377  1
  Mg  Mg20  1  0.621377  0.621377  0.135870  1
  Mg  Mg21  1  0.621377  0.621377  0.621377  1
  Mg  Mg22  1  0.500000  0.000000  0.000000  1
  Mg  Mg23  1  0.500000  0.000000  0.500000  1
  Mg  Mg24  1  0.500000  0.500000  0.000000  1
  Mg  Mg25  1  -0.000000  0.500000  0.500000  1
  Mg  Mg26  1  -0.000000  0.500000  0.000000  1
  Mg  Mg27  1  -0.000000  0.000000  0.500000  1
  Mg  Mg28  1  0.500000  0.500000  0.500000  1
  Sn  Sn29  1  -0.000000  0.000000  0.000000  1
