# generated using pymatgen
data_K3YCl6
_symmetry_space_group_name_H-M   'P 1'
_cell_length_a   7.93761978
_cell_length_b   7.93762016
_cell_length_c   7.93762014
_cell_angle_alpha   59.99999873
_cell_angle_beta   59.99999822
_cell_angle_gamma   59.99999827
_symmetry_Int_Tables_number   1
_chemical_formula_structural   K3YCl6
_chemical_formula_sum   'K3 Y1 Cl6'
_cell_volume   353.63553818
_cell_formula_units_Z   1
loop_
 _symmetry_equiv_pos_site_id
 _symmetry_equiv_pos_as_xyz
  1  'x, y, z'
loop_
 _atom_site_type_symbol
 _atom_site_label
 _atom_site_symmetry_multiplicity
 _atom_site_fract_x
 _atom_site_fract_y
 _atom_site_fract_z
 _atom_site_occupancy
  K  K0  1  0.250000  0.250000  0.250000  1
  K  K1  1  0.750000  0.750000  0.750000  1
  K  K2  1  0.500000  0.500000  0.500000  1
  Y  Y3  1  -0.000000  -0.000000  -0.000000  1
  Cl  Cl4  1  0.234577  0.765423  0.234577  1
  Cl  Cl5  1  0.765423  0.765423  0.234577  1
  Cl  Cl6  1  0.765423  0.234577  0.765423  1
  Cl  Cl7  1  0.765423  0.234577  0.234577  1
  Cl  Cl8  1  0.234577  0.765423  0.765423  1
  Cl  Cl9  1  0.234577  0.234577  0.765423  1
