# generated using pymatgen
data_TeMoSe
_symmetry_space_group_name_H-M   'P 1'
_cell_length_a   3.43859498
_cell_length_b   3.43853837
_cell_length_c   24.36528461
_cell_angle_alpha   89.99988186
_cell_angle_beta   90.00000000
_cell_angle_gamma   120.00054459
_symmetry_Int_Tables_number   1
_chemical_formula_structural   TeMoSe
_chemical_formula_sum   'Te2 Mo2 Se2'
_cell_volume   249.49085828
_cell_formula_units_Z   2
loop_
 _symmetry_equiv_pos_site_id
 _symmetry_equiv_pos_as_xyz
  1  'x, y, z'
loop_
 _atom_site_type_symbol
 _atom_site_label
 _atom_site_symmetry_multiplicity
 _atom_site_fract_x
 _atom_site_fract_y
 _atom_site_fract_z
 _atom_site_occupancy
  Te  Te0  1  0.333354  0.666708  0.527612  1
  Te  Te1  1  0.333354  0.666708  0.375203  1
  Mo  Mo2  1  0.333315  0.666630  0.150430  1
  Mo  Mo3  1  0.666692  0.333385  0.451416  1
  Se  Se4  1  0.666642  0.333283  0.083283  1
  Se  Se5  1  0.666644  0.333286  0.217659  1
