# generated using pymatgen
data_Te4W3S2
_symmetry_space_group_name_H-M   'P 1'
_cell_length_a   3.42149016
_cell_length_b   3.42149577
_cell_length_c   31.74936201
_cell_angle_alpha   89.99977150
_cell_angle_beta   90.00000000
_cell_angle_gamma   119.99994581
_symmetry_Int_Tables_number   1
_chemical_formula_structural   Te4W3S2
_chemical_formula_sum   'Te4 W3 S2'
_cell_volume   321.88235772
_cell_formula_units_Z   1
loop_
 _symmetry_equiv_pos_site_id
 _symmetry_equiv_pos_as_xyz
  1  'x, y, z'
loop_
 _atom_site_type_symbol
 _atom_site_label
 _atom_site_symmetry_multiplicity
 _atom_site_fract_x
 _atom_site_fract_y
 _atom_site_fract_z
 _atom_site_occupancy
  Te  Te0  1  0.333355  0.666710  0.405890  1
  Te  Te1  1  0.666648  0.333295  0.519380  1
  Te  Te2  1  0.666639  0.333277  0.637340  1
  Te  Te3  1  0.333354  0.666709  0.287946  1
  W  W4  1  0.333313  0.666626  0.115659  1
  W  W5  1  0.333312  0.666624  0.578391  1
  W  W6  1  0.666686  0.333373  0.346915  1
  S  S7  1  0.666647  0.333292  0.068393  1
  S  S8  1  0.666647  0.333293  0.162925  1
