# generated using pymatgen
data_Zn4CdS5
_symmetry_space_group_name_H-M   'P 1'
_cell_length_a   3.92791682
_cell_length_b   3.92791682
_cell_length_c   32.33541112
_cell_angle_alpha   89.99985335
_cell_angle_beta   90.00014665
_cell_angle_gamma   120.00120405
_symmetry_Int_Tables_number   1
_chemical_formula_structural   Zn4CdS5
_chemical_formula_sum   'Zn8 Cd2 S10'
_cell_volume   432.04433515
_cell_formula_units_Z   2
loop_
 _symmetry_equiv_pos_site_id
 _symmetry_equiv_pos_as_xyz
  1  'x, y, z'
loop_
 _atom_site_type_symbol
 _atom_site_label
 _atom_site_symmetry_multiplicity
 _atom_site_fract_x
 _atom_site_fract_y
 _atom_site_fract_z
 _atom_site_occupancy
  Zn  Zn0  1  0.333329  0.666671  0.501526  1
  Zn  Zn1  1  0.333335  0.666665  0.699685  1
  Zn  Zn2  1  0.333330  0.666670  0.898041  1
  Zn  Zn3  1  0.666674  0.333326  0.995072  1
  Zn  Zn4  1  0.666666  0.333334  0.200438  1
  Zn  Zn5  1  0.666667  0.333333  0.404950  1
  Zn  Zn6  1  0.666673  0.333327  0.600069  1
  Zn  Zn7  1  0.666668  0.333332  0.799344  1
  Cd  Cd8  1  0.333323  0.666677  0.096365  1
  Cd  Cd9  1  0.333333  0.666667  0.299949  1
  S  S10  1  0.333340  0.666660  0.018313  1
  S  S11  1  0.333331  0.666669  0.222282  1
  S  S12  1  0.333334  0.666666  0.428238  1
  S  S13  1  0.333340  0.666660  0.625242  1
  S  S14  1  0.333335  0.666665  0.824216  1
  S  S15  1  0.666661  0.333339  0.128593  1
  S  S16  1  0.666665  0.333335  0.332580  1
  S  S17  1  0.666664  0.333336  0.526081  1
  S  S18  1  0.666668  0.333332  0.724973  1
  S  S19  1  0.666665  0.333335  0.922044  1
