# generated using pymatgen
data_Zr3Mn8Al
_symmetry_space_group_name_H-M   'P 1'
_cell_length_a   4.86891478
_cell_length_b   4.86891478
_cell_length_c   8.12078269
_cell_angle_alpha   89.99098040
_cell_angle_beta   90.00901960
_cell_angle_gamma   119.99222096
_symmetry_Int_Tables_number   1
_chemical_formula_structural   Zr3Mn8Al
_chemical_formula_sum   'Zr3 Mn8 Al1'
_cell_volume   166.73504777
_cell_formula_units_Z   1
loop_
 _symmetry_equiv_pos_site_id
 _symmetry_equiv_pos_as_xyz
  1  'x, y, z'
loop_
 _atom_site_type_symbol
 _atom_site_label
 _atom_site_symmetry_multiplicity
 _atom_site_fract_x
 _atom_site_fract_y
 _atom_site_fract_z
 _atom_site_occupancy
  Zr  Zr0  1  0.333318  0.666682  0.441664  1
  Zr  Zr1  1  0.333341  0.666659  0.065310  1
  Zr  Zr2  1  0.666650  0.333350  0.923419  1
  Mn  Mn3  1  0.999991  0.000009  0.502538  1
  Mn  Mn4  1  0.999974  0.000026  0.005050  1
  Mn  Mn5  1  0.171007  0.342060  0.745221  1
  Mn  Mn6  1  0.171031  0.828969  0.745186  1
  Mn  Mn7  1  0.657940  0.828993  0.745221  1
  Mn  Mn8  1  0.826652  0.653245  0.254218  1
  Mn  Mn9  1  0.826639  0.173361  0.254237  1
  Mn  Mn10  1  0.346755  0.173348  0.254218  1
  Al  Al11  1  0.666702  0.333298  0.563719  1
