# generated using pymatgen
data_MgSnO6
_symmetry_space_group_name_H-M   'P 1'
_cell_length_a   8.16733864
_cell_length_b   8.17350502
_cell_length_c   8.16548493
_cell_angle_alpha   90.01450843
_cell_angle_beta   89.94481009
_cell_angle_gamma   89.98660028
_symmetry_Int_Tables_number   1
_chemical_formula_structural   MgSnO6
_chemical_formula_sum   'Mg4 Sn4 O24'
_cell_volume   545.09305831
_cell_formula_units_Z   4
loop_
 _symmetry_equiv_pos_site_id
 _symmetry_equiv_pos_as_xyz
  1  'x, y, z'
loop_
 _atom_site_type_symbol
 _atom_site_label
 _atom_site_symmetry_multiplicity
 _atom_site_fract_x
 _atom_site_fract_y
 _atom_site_fract_z
 _atom_site_occupancy
  Mg  Mg0  1  0.500167  0.999870  0.999948  1
  Mg  Mg1  1  0.999954  0.000023  0.500056  1
  Mg  Mg2  1  0.999868  0.500047  -0.000015  1
  Mg  Mg3  1  0.499992  0.500000  0.499980  1
  Sn  Sn4  1  0.000119  0.499852  0.499880  1
  Sn  Sn5  1  0.500028  0.499993  0.000121  1
  Sn  Sn6  1  0.499833  0.000223  0.499797  1
  Sn  Sn7  1  0.000009  0.000045  0.000156  1
  O  O8  1  0.000281  0.499824  0.752874  1
  O  O9  1  0.499452  0.499680  0.747028  1
  O  O10  1  0.499594  0.000159  0.752807  1
  O  O11  1  0.000325  0.000177  0.747236  1
  O  O12  1  0.747129  0.499552  0.499529  1
  O  O13  1  0.752903  0.499695  0.000296  1
  O  O14  1  0.752729  -0.000005  0.499747  1
  O  O15  1  0.747217  0.000094  0.000259  1
  O  O16  1  0.499925  0.747204  0.499832  1
  O  O17  1  0.000553  0.752746  0.499553  1
  O  O18  1  0.499672  0.752896  0.000312  1
  O  O19  1  0.000352  0.747232  0.000176  1
  O  O20  1  0.999364  0.500532  0.247046  1
  O  O21  1  0.500454  0.500437  0.253043  1
  O  O22  1  0.500443  0.999719  0.246942  1
  O  O23  1  0.999546  0.999800  0.252928  1
  O  O24  1  0.252969  0.500524  0.500732  1
  O  O25  1  0.246927  0.500354  0.999539  1
  O  O26  1  0.247052  0.999619  0.500603  1
  O  O27  1  0.253046  0.999713  0.999534  1
  O  O28  1  0.500426  0.252973  0.500380  1
  O  O29  1  0.999550  0.247150  0.500471  1
  O  O30  1  0.500401  0.246913  0.999557  1
  O  O31  1  0.999720  0.252957  0.999654  1
