# generated using pymatgen
data_Nb3(Cl3O4)2
_symmetry_space_group_name_H-M   'P 1'
_cell_length_a   11.77013461
_cell_length_b   11.77013461
_cell_length_c   11.77013461
_cell_angle_alpha   60.00000000
_cell_angle_beta   60.00000000
_cell_angle_gamma   60.00000000
_symmetry_Int_Tables_number   1
_chemical_formula_structural   Nb3(Cl3O4)2
_chemical_formula_sum   'Nb6 Cl12 O16'
_cell_volume   1152.99995829
_cell_formula_units_Z   2
loop_
 _symmetry_equiv_pos_site_id
 _symmetry_equiv_pos_as_xyz
  1  'x, y, z'
loop_
 _atom_site_type_symbol
 _atom_site_label
 _atom_site_symmetry_multiplicity
 _atom_site_fract_x
 _atom_site_fract_y
 _atom_site_fract_z
 _atom_site_occupancy
  Nb  Nb0  1  0.862856  0.862856  0.137144  1
  Nb  Nb1  1  0.862856  0.137144  0.137144  1
  Nb  Nb2  1  0.862856  0.137144  0.862856  1
  Nb  Nb3  1  0.137144  0.862856  0.862856  1
  Nb  Nb4  1  0.137144  0.862856  0.137144  1
  Nb  Nb5  1  0.137144  0.137144  0.862856  1
  Cl  Cl6  1  0.584415  -0.000000  0.415585  1
  Cl  Cl7  1  0.584415  0.415585  0.000000  1
  Cl  Cl8  1  0.584415  -0.000000  0.000000  1
  Cl  Cl9  1  -0.000000  0.584415  0.000000  1
  Cl  Cl10  1  0.415585  0.584415  0.000000  1
  Cl  Cl11  1  0.000000  0.584415  0.415585  1
  Cl  Cl12  1  0.415585  -0.000000  0.584415  1
  Cl  Cl13  1  -0.000000  0.000000  0.584415  1
  Cl  Cl14  1  -0.000000  0.415585  0.584415  1
  Cl  Cl15  1  -0.000000  0.415585  0.000000  1
  Cl  Cl16  1  -0.000000  -0.000000  0.415585  1
  Cl  Cl17  1  0.415585  -0.000000  0.000000  1
  O  O18  1  0.758804  0.758804  0.241196  1
  O  O19  1  0.758804  0.241196  0.241196  1
  O  O20  1  0.758804  0.241196  0.758804  1
  O  O21  1  0.241196  0.758804  0.758804  1
  O  O22  1  0.241196  0.758804  0.241196  1
  O  O23  1  0.241196  0.241196  0.758804  1
  O  O24  1  0.250000  0.250000  0.250000  1
  O  O25  1  0.750000  0.750000  0.750000  1
  O  O26  1  0.761609  0.079464  0.079464  1
  O  O27  1  0.079464  0.761609  0.079464  1
  O  O28  1  0.079464  0.079464  0.761609  1
  O  O29  1  0.079464  0.079464  0.079464  1
  O  O30  1  0.238391  0.920536  0.920536  1
  O  O31  1  0.920536  0.238391  0.920536  1
  O  O32  1  0.920536  0.920536  0.238391  1
  O  O33  1  0.920536  0.920536  0.920536  1
