# generated using pymatgen
data_Y2CuPt
_symmetry_space_group_name_H-M   'P 1'
_cell_length_a   4.93161573
_cell_length_b   4.93136490
_cell_length_c   4.93143755
_cell_angle_alpha   60.00291050
_cell_angle_beta   59.99792048
_cell_angle_gamma   59.99788914
_symmetry_Int_Tables_number   1
_chemical_formula_structural   Y2CuPt
_chemical_formula_sum   'Y2 Cu1 Pt1'
_cell_volume   84.80290043
_cell_formula_units_Z   1
loop_
 _symmetry_equiv_pos_site_id
 _symmetry_equiv_pos_as_xyz
  1  'x, y, z'
loop_
 _atom_site_type_symbol
 _atom_site_label
 _atom_site_symmetry_multiplicity
 _atom_site_fract_x
 _atom_site_fract_y
 _atom_site_fract_z
 _atom_site_occupancy
  Y  Y0  1  0.000002  0.000003  0.999997  1
  Y  Y1  1  0.499999  0.499997  0.500003  1
  Cu  Cu2  1  0.250001  0.250001  0.250001  1
  Pt  Pt3  1  0.749999  0.749999  0.749999  1
