# generated using pymatgen
data_V2ZnO4
_symmetry_space_group_name_H-M   'P 1'
_cell_length_a   6.06376864
_cell_length_b   6.07277970
_cell_length_c   18.24945810
_cell_angle_alpha   60.03749871
_cell_angle_beta   60.07479185
_cell_angle_gamma   60.02274584
_symmetry_Int_Tables_number   1
_chemical_formula_structural   V2ZnO4
_chemical_formula_sum   'V12 Zn6 O24'
_cell_volume   475.67222768
_cell_formula_units_Z   6
loop_
 _symmetry_equiv_pos_site_id
 _symmetry_equiv_pos_as_xyz
  1  'x, y, z'
loop_
 _atom_site_type_symbol
 _atom_site_label
 _atom_site_symmetry_multiplicity
 _atom_site_fract_x
 _atom_site_fract_y
 _atom_site_fract_z
 _atom_site_occupancy
  V  V0  1  0.001947  0.498086  0.167046  1
  V  V1  1  0.498260  0.498091  0.167446  1
  V  V2  1  0.001007  0.501128  0.499442  1
  V  V3  1  0.498404  0.002305  0.166783  1
  V  V4  1  0.499891  0.499604  0.333123  1
  V  V5  1  0.500590  0.500268  0.499769  1
  V  V6  1  0.001847  0.499975  0.832986  1
  V  V7  1  0.501345  0.000899  0.499470  1
  V  V8  1  0.499246  0.002197  0.832914  1
  V  V9  1  0.501001  0.501195  0.665429  1
  V  V10  1  0.498994  0.500088  0.832853  1
  V  V11  1  0.874798  0.874870  0.958503  1
  Zn  Zn12  1  0.119961  0.119734  0.046713  1
  Zn  Zn13  1  0.124848  0.124937  0.374945  1
  Zn  Zn14  1  0.498426  0.498603  0.001670  1
  Zn  Zn15  1  0.125599  0.125556  0.707641  1
  Zn  Zn16  1  0.876098  0.876308  0.290638  1
  Zn  Zn17  1  0.875061  0.875178  0.624894  1
  O  O18  1  0.252875  0.253172  0.091541  1
  O  O19  1  0.258746  0.258225  0.241329  1
  O  O20  1  0.252935  0.719551  0.091500  1
  O  O21  1  0.719459  0.253090  0.091551  1
  O  O22  1  0.282467  0.738712  0.246285  1
  O  O23  1  0.262365  0.262213  0.419307  1
  O  O24  1  0.740101  0.281965  0.245730  1
  O  O25  1  0.744305  0.744604  0.089009  1
  O  O26  1  0.261002  0.718764  0.420063  1
  O  O27  1  0.262124  0.260755  0.571811  1
  O  O28  1  0.737515  0.736862  0.247379  1
  O  O29  1  0.718105  0.261645  0.419929  1
  O  O30  1  0.281152  0.738944  0.580321  1
  O  O31  1  0.261380  0.262050  0.752412  1
  O  O32  1  0.740842  0.280217  0.579872  1
  O  O33  1  0.738436  0.739828  0.427752  1
  O  O34  1  0.261447  0.260481  0.905757  1
  O  O35  1  0.261712  0.719333  0.752298  1
  O  O36  1  0.739776  0.740234  0.579760  1
  O  O37  1  0.718543  0.262796  0.751853  1
  O  O38  1  0.270952  0.749300  0.910129  1
  O  O39  1  0.737494  0.738461  0.761924  1
  O  O40  1  0.749237  0.270525  0.910241  1
  O  O41  1  0.749700  0.749252  0.909982  1
