# generated using pymatgen
data_Dy2In3Cu
_symmetry_space_group_name_H-M   'P 1'
_cell_length_a   4.71639809
_cell_length_b   4.71714255
_cell_length_c   7.45042951
_cell_angle_alpha   90.00000000
_cell_angle_beta   89.99477562
_cell_angle_gamma   59.99477292
_symmetry_Int_Tables_number   1
_chemical_formula_structural   Dy2In3Cu
_chemical_formula_sum   'Dy2 In3 Cu1'
_cell_volume   143.54184284
_cell_formula_units_Z   1
loop_
 _symmetry_equiv_pos_site_id
 _symmetry_equiv_pos_as_xyz
  1  'x, y, z'
loop_
 _atom_site_type_symbol
 _atom_site_label
 _atom_site_symmetry_multiplicity
 _atom_site_fract_x
 _atom_site_fract_y
 _atom_site_fract_z
 _atom_site_occupancy
  Dy  Dy0  1  0.999987  0.000006  0.722972  1
  Dy  Dy1  1  0.999963  0.000018  0.262837  1
  In  In2  1  0.666678  0.666661  0.483541  1
  In  In3  1  0.666697  0.666651  0.052275  1
  In  In4  1  0.333361  0.333320  0.932930  1
  Cu  Cu5  1  0.333314  0.333343  0.545445  1
