# generated using pymatgen
data_Mo2WS6
_symmetry_space_group_name_H-M   'P 1'
_cell_length_a   3.18793931
_cell_length_b   3.18779422
_cell_length_c   29.10050022
_cell_angle_alpha   89.99994354
_cell_angle_beta   90.00000000
_cell_angle_gamma   120.00150570
_symmetry_Int_Tables_number   1
_chemical_formula_structural   Mo2WS6
_chemical_formula_sum   'Mo2 W1 S6'
_cell_volume   256.10898826
_cell_formula_units_Z   1
loop_
 _symmetry_equiv_pos_site_id
 _symmetry_equiv_pos_as_xyz
  1  'x, y, z'
loop_
 _atom_site_type_symbol
 _atom_site_label
 _atom_site_symmetry_multiplicity
 _atom_site_fract_x
 _atom_site_fract_y
 _atom_site_fract_z
 _atom_site_occupancy
  Mo  Mo0  1  0.333313  0.666626  0.115660  1
  Mo  Mo1  1  0.666687  0.333373  0.346982  1
  W  W2  1  0.333314  0.666628  0.578308  1
  S  S3  1  0.333355  0.666711  0.400832  1
  S  S4  1  0.666643  0.333286  0.061772  1
  S  S5  1  0.666642  0.333283  0.524229  1
  S  S6  1  0.666645  0.333288  0.169518  1
  S  S7  1  0.666643  0.333285  0.632414  1
  S  S8  1  0.333359  0.666719  0.293128  1
