# generated using pymatgen
data_MnNF3
_symmetry_space_group_name_H-M   'P 1'
_cell_length_a   3.97961191
_cell_length_b   3.98171193
_cell_length_c   3.98788688
_cell_angle_alpha   90.03976668
_cell_angle_beta   89.99750335
_cell_angle_gamma   89.71404583
_symmetry_Int_Tables_number   1
_chemical_formula_structural   MnNF3
_chemical_formula_sum   'Mn1 N1 F3'
_cell_volume   63.18993014
_cell_formula_units_Z   1
loop_
 _symmetry_equiv_pos_site_id
 _symmetry_equiv_pos_as_xyz
  1  'x, y, z'
loop_
 _atom_site_type_symbol
 _atom_site_label
 _atom_site_symmetry_multiplicity
 _atom_site_fract_x
 _atom_site_fract_y
 _atom_site_fract_z
 _atom_site_occupancy
  Mn  Mn0  1  0.500021  0.499948  0.500026  1
  N  N1  1  0.999984  0.999962  0.999997  1
  F  F2  1  0.499990  0.499913  0.000021  1
  F  F3  1  0.499975  0.000250  0.499977  1
  F  F4  1  0.000029  0.499926  0.499978  1
