# generated using pymatgen
data_Te3Mo2Se
_symmetry_space_group_name_H-M   'P 1'
_cell_length_a   3.49955136
_cell_length_b   3.49953118
_cell_length_c   39.56214279
_cell_angle_alpha   90.00026602
_cell_angle_beta   90.00000000
_cell_angle_gamma   120.00019074
_symmetry_Int_Tables_number   1
_chemical_formula_structural   Te3Mo2Se
_chemical_formula_sum   'Te6 Mo4 Se2'
_cell_volume   419.59648589
_cell_formula_units_Z   2
loop_
 _symmetry_equiv_pos_site_id
 _symmetry_equiv_pos_as_xyz
  1  'x, y, z'
loop_
 _atom_site_type_symbol
 _atom_site_label
 _atom_site_symmetry_multiplicity
 _atom_site_fract_x
 _atom_site_fract_y
 _atom_site_fract_z
 _atom_site_occupancy
  Te  Te0  1  0.333356  0.666712  0.703837  1
  Te  Te1  1  0.666644  0.333288  0.047627  1
  Te  Te2  1  0.666648  0.333295  0.423343  1
  Te  Te3  1  0.666648  0.333296  0.140244  1
  Te  Te4  1  0.666641  0.333281  0.515953  1
  Te  Te5  1  0.333355  0.666710  0.611226  1
  Mo  Mo6  1  0.333310  0.666620  0.093929  1
  Mo  Mo7  1  0.333311  0.666621  0.469639  1
  Mo  Mo8  1  0.666689  0.333378  0.281800  1
  Mo  Mo9  1  0.666692  0.333383  0.657557  1
  Se  Se10  1  0.333357  0.666714  0.322709  1
  Se  Se11  1  0.333350  0.666700  0.240884  1
