# generated using pymatgen
data_TeMo2Se3
_symmetry_space_group_name_H-M   'P 1'
_cell_length_a   3.37999440
_cell_length_b   3.37982952
_cell_length_c   38.49652531
_cell_angle_alpha   89.99987662
_cell_angle_beta   90.00000000
_cell_angle_gamma   120.00161373
_symmetry_Int_Tables_number   1
_chemical_formula_structural   TeMo2Se3
_chemical_formula_sum   'Te2 Mo4 Se6'
_cell_volume   380.85168142
_cell_formula_units_Z   2
loop_
 _symmetry_equiv_pos_site_id
 _symmetry_equiv_pos_as_xyz
  1  'x, y, z'
loop_
 _atom_site_type_symbol
 _atom_site_label
 _atom_site_symmetry_multiplicity
 _atom_site_fract_x
 _atom_site_fract_y
 _atom_site_fract_z
 _atom_site_occupancy
  Te  Te0  1  0.666644  0.333286  0.420780  1
  Te  Te1  1  0.666648  0.333296  0.518522  1
  Mo  Mo2  1  0.333311  0.666622  0.093922  1
  Mo  Mo3  1  0.333311  0.666622  0.469679  1
  Mo  Mo4  1  0.666685  0.333371  0.281784  1
  Mo  Mo5  1  0.666687  0.333373  0.657554  1
  Se  Se6  1  0.333344  0.666688  0.324814  1
  Se  Se7  1  0.333369  0.666738  0.700527  1
  Se  Se8  1  0.666645  0.333289  0.050947  1
  Se  Se9  1  0.666646  0.333290  0.136919  1
  Se  Se10  1  0.333356  0.666713  0.238781  1
  Se  Se11  1  0.333355  0.666711  0.614520  1
