# generated using pymatgen
data_CsPSe6
_symmetry_space_group_name_H-M   'P 1'
_cell_length_a   7.16116876
_cell_length_b   11.54507915
_cell_length_c   13.01362746
_cell_angle_alpha   90.00000000
_cell_angle_beta   90.00000000
_cell_angle_gamma   91.78117106
_symmetry_Int_Tables_number   1
_chemical_formula_structural   CsPSe6
_chemical_formula_sum   'Cs4 P4 Se24'
_cell_volume   1075.39819716
_cell_formula_units_Z   4
loop_
 _symmetry_equiv_pos_site_id
 _symmetry_equiv_pos_as_xyz
  1  'x, y, z'
loop_
 _atom_site_type_symbol
 _atom_site_label
 _atom_site_symmetry_multiplicity
 _atom_site_fract_x
 _atom_site_fract_y
 _atom_site_fract_z
 _atom_site_occupancy
  Cs  Cs0  1  0.249993  0.250025  0.026348  1
  Cs  Cs1  1  0.749993  0.750025  0.973652  1
  Cs  Cs2  1  0.474356  0.000610  0.495576  1
  Cs  Cs3  1  0.974356  0.500610  0.504424  1
  P  P4  1  0.750115  0.249969  0.847405  1
  P  P5  1  0.250115  0.749969  0.152595  1
  P  P6  1  0.750029  0.249697  0.338843  1
  P  P7  1  0.250029  0.749697  0.661157  1
  Se  Se8  1  0.608156  0.109458  0.236301  1
  Se  Se9  1  0.392193  0.890900  0.762603  1
  Se  Se10  1  0.892193  0.390900  0.237397  1
  Se  Se11  1  0.108156  0.609458  0.763699  1
  Se  Se12  1  0.508586  0.575055  0.323059  1
  Se  Se13  1  0.488783  0.424453  0.676845  1
  Se  Se14  1  0.988783  0.924453  0.323155  1
  Se  Se15  1  0.008586  0.075055  0.676941  1
  Se  Se16  1  0.488104  0.232423  0.746839  1
  Se  Se17  1  0.512212  0.767578  0.253106  1
  Se  Se18  1  0.012212  0.267578  0.746894  1
  Se  Se19  1  0.988104  0.732423  0.253161  1
  Se  Se20  1  0.515799  0.318298  0.423264  1
  Se  Se21  1  0.483860  0.682509  0.575983  1
  Se  Se22  1  0.983860  0.182509  0.424017  1
  Se  Se23  1  0.015799  0.818298  0.576736  1
  Se  Se24  1  0.885660  0.025246  0.170111  1
  Se  Se25  1  0.114995  0.974841  0.829696  1
  Se  Se26  1  0.614995  0.474841  0.170304  1
  Se  Se27  1  0.385660  0.525246  0.829889  1
  Se  Se28  1  0.732558  0.088901  0.934226  1
  Se  Se29  1  0.267301  0.911138  0.065883  1
  Se  Se30  1  0.767301  0.411138  0.934117  1
  Se  Se31  1  0.232558  0.588901  0.065774  1
