# generated using pymatgen
data_W3(Se2S)2
_symmetry_space_group_name_H-M   'P 1'
_cell_length_a   3.27519345
_cell_length_b   3.27517466
_cell_length_c   30.26800362
_cell_angle_alpha   90.00013407
_cell_angle_beta   90.00000000
_cell_angle_gamma   120.00018965
_symmetry_Int_Tables_number   1
_chemical_formula_structural   W3(Se2S)2
_chemical_formula_sum   'W3 Se4 S2'
_cell_volume   281.18037217
_cell_formula_units_Z   1
loop_
 _symmetry_equiv_pos_site_id
 _symmetry_equiv_pos_as_xyz
  1  'x, y, z'
loop_
 _atom_site_type_symbol
 _atom_site_label
 _atom_site_symmetry_multiplicity
 _atom_site_fract_x
 _atom_site_fract_y
 _atom_site_fract_z
 _atom_site_occupancy
  W  W0  1  0.333311  0.666621  0.115643  1
  W  W1  1  0.333312  0.666624  0.578338  1
  W  W2  1  0.666689  0.333378  0.346969  1
  Se  Se3  1  0.333353  0.666707  0.403131  1
  Se  Se4  1  0.666647  0.333294  0.522140  1
  Se  Se5  1  0.666647  0.333294  0.634522  1
  Se  Se6  1  0.333353  0.666707  0.290807  1
  S  S7  1  0.666646  0.333291  0.064620  1
  S  S8  1  0.666643  0.333284  0.166670  1
