# generated using pymatgen
data_Zn(FeO2)2
_symmetry_space_group_name_H-M   'P 1'
_cell_length_a   6.05165560
_cell_length_b   6.05165562
_cell_length_c   36.27807412
_cell_angle_alpha   59.97094459
_cell_angle_beta   59.97094449
_cell_angle_gamma   60.00000176
_symmetry_Int_Tables_number   1
_chemical_formula_structural   Zn(FeO2)2
_chemical_formula_sum   'Zn12 Fe24 O48'
_cell_volume   939.04579318
_cell_formula_units_Z   12
loop_
 _symmetry_equiv_pos_site_id
 _symmetry_equiv_pos_as_xyz
  1  'x, y, z'
loop_
 _atom_site_type_symbol
 _atom_site_label
 _atom_site_symmetry_multiplicity
 _atom_site_fract_x
 _atom_site_fract_y
 _atom_site_fract_z
 _atom_site_occupancy
  Zn  Zn0  1  0.122619  0.122619  0.022024  1
  Zn  Zn1  1  0.498223  0.498223  0.000889  1
  Zn  Zn2  1  0.121648  0.121648  0.189176  1
  Zn  Zn3  1  0.498086  0.498086  0.167624  1
  Zn  Zn4  1  0.124887  0.124887  0.354223  1
  Zn  Zn5  1  0.125331  0.125331  0.520668  1
  Zn  Zn6  1  0.876018  0.876018  0.311991  1
  Zn  Zn7  1  0.125417  0.125417  0.687292  1
  Zn  Zn8  1  0.875398  0.875398  0.478968  1
  Zn  Zn9  1  0.125492  0.125492  0.853921  1
  Zn  Zn10  1  0.875618  0.875618  0.645524  1
  Zn  Zn11  1  0.875633  0.875633  0.812183  1
  Fe  Fe12  1  0.497733  0.497733  0.083160  1
  Fe  Fe13  1  0.497733  0.005572  0.083160  1
  Fe  Fe14  1  0.498374  0.498374  0.249873  1
  Fe  Fe15  1  0.005572  0.497733  0.083160  1
  Fe  Fe16  1  0.876656  0.876656  0.145005  1
  Fe  Fe17  1  0.501256  0.501256  0.332705  1
  Fe  Fe18  1  0.498374  0.004011  0.249873  1
  Fe  Fe19  1  0.004011  0.498374  0.249873  1
  Fe  Fe20  1  0.500512  0.500512  0.416225  1
  Fe  Fe21  1  0.500977  0.500977  0.499512  1
  Fe  Fe22  1  0.500512  0.001626  0.416225  1
  Fe  Fe23  1  0.500242  0.500242  0.583131  1
  Fe  Fe24  1  0.001626  0.500512  0.416225  1
  Fe  Fe25  1  0.000673  0.500309  0.749785  1
  Fe  Fe26  1  0.500242  0.000730  0.583131  1
  Fe  Fe27  1  0.500786  0.500786  0.666274  1
  Fe  Fe28  1  0.500309  0.500309  0.749785  1
  Fe  Fe29  1  0.000730  0.500242  0.583131  1
  Fe  Fe30  1  0.500585  0.500585  0.833041  1
  Fe  Fe31  1  0.500309  0.000673  0.749785  1
  Fe  Fe32  1  0.499009  0.499009  0.916709  1
  Fe  Fe33  1  0.499009  0.001729  0.916709  1
  Fe  Fe34  1  0.001729  0.499009  0.916709  1
  Fe  Fe35  1  0.875539  0.875539  0.978898  1
  O  O36  1  0.254701  0.254701  0.044844  1
  O  O37  1  0.259533  0.259533  0.120234  1
  O  O38  1  0.254701  0.721536  0.044844  1
  O  O39  1  0.721536  0.254701  0.044844  1
  O  O40  1  0.253461  0.253461  0.211901  1
  O  O41  1  0.270393  0.748591  0.122071  1
  O  O42  1  0.743642  0.743642  0.044846  1
  O  O43  1  0.748591  0.270393  0.122071  1
  O  O44  1  0.259491  0.259491  0.286921  1
  O  O45  1  0.253461  0.721672  0.211901  1
  O  O46  1  0.721672  0.253461  0.211901  1
  O  O47  1  0.748591  0.748591  0.122071  1
  O  O48  1  0.261220  0.261220  0.376401  1
  O  O49  1  0.282835  0.737878  0.290235  1
  O  O50  1  0.744895  0.744895  0.210885  1
  O  O51  1  0.737878  0.282835  0.290235  1
  O  O52  1  0.260188  0.260188  0.453239  1
  O  O53  1  0.261220  0.719154  0.376401  1
  O  O54  1  0.719154  0.261220  0.376401  1
  O  O55  1  0.737878  0.737878  0.290235  1
  O  O56  1  0.259682  0.259682  0.543592  1
  O  O57  1  0.280626  0.739583  0.456701  1
  O  O58  1  0.739705  0.739705  0.380148  1
  O  O59  1  0.739583  0.280626  0.456701  1
  O  O60  1  0.259682  0.719084  0.543592  1
  O  O61  1  0.260062  0.260062  0.619969  1
  O  O62  1  0.719084  0.259682  0.543592  1
  O  O63  1  0.739583  0.739583  0.456701  1
  O  O64  1  0.259760  0.259760  0.710224  1
  O  O65  1  0.280506  0.739272  0.623492  1
  O  O66  1  0.739272  0.280506  0.623492  1
  O  O67  1  0.739464  0.739464  0.546935  1
  O  O68  1  0.260107  0.260107  0.786613  1
  O  O69  1  0.259760  0.719134  0.710224  1
  O  O70  1  0.719134  0.259760  0.710224  1
  O  O71  1  0.739272  0.739272  0.623492  1
  O  O72  1  0.260432  0.260432  0.876799  1
  O  O73  1  0.280262  0.739435  0.790145  1
  O  O74  1  0.260432  0.718342  0.876799  1
  O  O75  1  0.739529  0.739529  0.713569  1
  O  O76  1  0.259864  0.259864  0.953401  1
  O  O77  1  0.739435  0.280262  0.790145  1
  O  O78  1  0.718342  0.260432  0.876799  1
  O  O79  1  0.739435  0.739435  0.790145  1
  O  O80  1  0.266916  0.750120  0.955474  1
  O  O81  1  0.737925  0.737925  0.881037  1
  O  O82  1  0.750120  0.266916  0.955474  1
  O  O83  1  0.750120  0.750120  0.955474  1
