# generated using pymatgen
data_Na3GaBr6
_symmetry_space_group_name_H-M   'P 1'
_cell_length_a   7.64468952
_cell_length_b   7.64468985
_cell_length_c   7.64468982
_cell_angle_alpha   59.99999893
_cell_angle_beta   59.99999837
_cell_angle_gamma   59.99999849
_symmetry_Int_Tables_number   1
_chemical_formula_structural   Na3GaBr6
_chemical_formula_sum   'Na3 Ga1 Br6'
_cell_volume   315.91087716
_cell_formula_units_Z   1
loop_
 _symmetry_equiv_pos_site_id
 _symmetry_equiv_pos_as_xyz
  1  'x, y, z'
loop_
 _atom_site_type_symbol
 _atom_site_label
 _atom_site_symmetry_multiplicity
 _atom_site_fract_x
 _atom_site_fract_y
 _atom_site_fract_z
 _atom_site_occupancy
  Na  Na0  1  0.250000  0.250000  0.250000  1
  Na  Na1  1  0.750000  0.750000  0.750000  1
  Na  Na2  1  0.500000  0.500000  0.500000  1
  Ga  Ga3  1  -0.000000  -0.000000  -0.000000  1
  Br  Br4  1  0.236024  0.763976  0.236024  1
  Br  Br5  1  0.763976  0.763976  0.236024  1
  Br  Br6  1  0.763976  0.236024  0.763976  1
  Br  Br7  1  0.763976  0.236024  0.236024  1
  Br  Br8  1  0.236024  0.763976  0.763976  1
  Br  Br9  1  0.236024  0.236024  0.763976  1
