# generated using pymatgen
data_Al6CoCu3
_symmetry_space_group_name_H-M   'P 1'
_cell_length_a   4.10336678
_cell_length_b   4.10616310
_cell_length_c   9.94360107
_cell_angle_alpha   89.99999998
_cell_angle_beta   89.98593670
_cell_angle_gamma   120.02255281
_symmetry_Int_Tables_number   1
_chemical_formula_structural   Al6CoCu3
_chemical_formula_sum   'Al6 Co1 Cu3'
_cell_volume   145.06147835
_cell_formula_units_Z   1
loop_
 _symmetry_equiv_pos_site_id
 _symmetry_equiv_pos_as_xyz
  1  'x, y, z'
loop_
 _atom_site_type_symbol
 _atom_site_label
 _atom_site_symmetry_multiplicity
 _atom_site_fract_x
 _atom_site_fract_y
 _atom_site_fract_z
 _atom_site_occupancy
  Al  Al0  1  0.333475  0.666737  0.188247  1
  Al  Al1  1  0.333493  0.666747  0.672677  1
  Al  Al2  1  0.666524  0.333262  0.329054  1
  Al  Al3  1  0.666507  0.333253  0.822679  1
  Al  Al4  1  0.999987  0.999994  0.004612  1
  Al  Al5  1  0.000024  0.000012  0.472911  1
  Co  Co6  1  0.333317  0.666659  0.429990  1
  Cu  Cu7  1  0.333976  0.666988  0.926070  1
  Cu  Cu8  1  0.666153  0.333076  0.077286  1
  Cu  Cu9  1  0.666544  0.333272  0.576473  1
