# generated using pymatgen
data_AlSi3O8
_symmetry_space_group_name_H-M   'P 1'
_cell_length_a   5.04292734
_cell_length_b   8.87831726
_cell_length_c   8.97720111
_cell_angle_alpha   92.22603008
_cell_angle_beta   90.00000000
_cell_angle_gamma   90.00000000
_symmetry_Int_Tables_number   1
_chemical_formula_structural   AlSi3O8
_chemical_formula_sum   'Al2 Si6 O16'
_cell_volume   401.63030161
_cell_formula_units_Z   2
loop_
 _symmetry_equiv_pos_site_id
 _symmetry_equiv_pos_as_xyz
  1  'x, y, z'
loop_
 _atom_site_type_symbol
 _atom_site_label
 _atom_site_symmetry_multiplicity
 _atom_site_fract_x
 _atom_site_fract_y
 _atom_site_fract_z
 _atom_site_occupancy
  Al  Al0  1  0.601427  0.681844  0.334150  1
  Al  Al1  1  0.898573  0.181844  0.834150  1
  Si  Si2  1  0.389425  0.681587  0.671869  1
  Si  Si3  1  0.098787  0.823395  0.162232  1
  Si  Si4  1  0.882291  0.814899  0.831240  1
  Si  Si5  1  0.401213  0.323395  0.662232  1
  Si  Si6  1  0.617709  0.314899  0.331240  1
  Si  Si7  1  0.110575  0.181587  0.171869  1
  O  O8  1  0.872913  0.791652  0.284707  1
  O  O9  1  0.110300  0.766536  0.709623  1
  O  O10  1  0.352473  0.722664  0.204907  1
  O  O11  1  0.611899  0.716918  0.801443  1
  O  O12  1  0.147527  0.222664  0.704907  1
  O  O13  1  0.888101  0.216918  0.301443  1
  O  O14  1  0.627087  0.291652  0.784707  1
  O  O15  1  0.389700  0.266536  0.209623  1
  O  O16  1  0.498861  0.733464  0.513765  1
  O  O17  1  0.995331  0.773971  0.995415  1
  O  O18  1  0.504669  0.273971  0.495415  1
  O  O19  1  0.001139  0.233464  0.013765  1
  O  O20  1  0.682347  0.491724  0.323745  1
  O  O21  1  0.322514  0.501347  0.666904  1
  O  O22  1  0.177486  0.001347  0.166904  1
  O  O23  1  0.817653  0.991724  0.823745  1
