# generated using pymatgen
data_BiSbTe2
_symmetry_space_group_name_H-M   'P 1'
_cell_length_a   4.37658846
_cell_length_b   4.37657954
_cell_length_c   25.18001029
_cell_angle_alpha   90.00062947
_cell_angle_beta   90.00065220
_cell_angle_gamma   59.99912799
_symmetry_Int_Tables_number   1
_chemical_formula_structural   BiSbTe2
_chemical_formula_sum   'Bi3 Sb3 Te6'
_cell_volume   417.68920858
_cell_formula_units_Z   3
loop_
 _symmetry_equiv_pos_site_id
 _symmetry_equiv_pos_as_xyz
  1  'x, y, z'
loop_
 _atom_site_type_symbol
 _atom_site_label
 _atom_site_symmetry_multiplicity
 _atom_site_fract_x
 _atom_site_fract_y
 _atom_site_fract_z
 _atom_site_occupancy
  Bi  Bi0  1  0.000027  0.000028  0.126757  1
  Bi  Bi1  1  0.000002  0.000002  0.873966  1
  Bi  Bi2  1  0.666675  0.666678  0.531662  1
  Sb  Sb3  1  0.333340  0.333339  0.466868  1
  Sb  Sb4  1  0.000004  0.000003  0.292037  1
  Sb  Sb5  1  0.999942  0.999941  0.708906  1
  Te  Te6  1  0.666659  0.666658  0.788131  1
  Te  Te7  1  0.333365  0.333363  0.210946  1
  Te  Te8  1  0.666704  0.666704  0.056705  1
  Te  Te9  1  0.333341  0.333341  0.943507  1
  Te  Te10  1  0.666682  0.666683  0.358983  1
  Te  Te11  1  0.333258  0.333257  0.641530  1
