# generated using pymatgen
data_Er2Ga3Cu
_symmetry_space_group_name_H-M   'P 1'
_cell_length_a   4.35708418
_cell_length_b   4.35708418
_cell_length_c   7.13786319
_cell_angle_alpha   90.00246608
_cell_angle_beta   89.99753392
_cell_angle_gamma   119.99719631
_symmetry_Int_Tables_number   1
_chemical_formula_structural   Er2Ga3Cu
_chemical_formula_sum   'Er2 Ga3 Cu1'
_cell_volume   117.35538454
_cell_formula_units_Z   1
loop_
 _symmetry_equiv_pos_site_id
 _symmetry_equiv_pos_as_xyz
  1  'x, y, z'
loop_
 _atom_site_type_symbol
 _atom_site_label
 _atom_site_symmetry_multiplicity
 _atom_site_fract_x
 _atom_site_fract_y
 _atom_site_fract_z
 _atom_site_occupancy
  Er  Er0  1  0.000021  0.999979  0.730383  1
  Er  Er1  1  0.999966  0.000034  0.260880  1
  Ga  Ga2  1  0.333346  0.666654  0.477021  1
  Ga  Ga3  1  0.333324  0.666676  0.045681  1
  Ga  Ga4  1  0.666660  0.333340  0.949017  1
  Cu  Cu5  1  0.666684  0.333316  0.537018  1
