# generated using pymatgen
data_CuPSe2
_symmetry_space_group_name_H-M   'P 1'
_cell_length_a   4.26236696
_cell_length_b   4.25885492
_cell_length_c   5.79828472
_cell_angle_alpha   90.00000000
_cell_angle_beta   90.03673196
_cell_angle_gamma   60.02726232
_symmetry_Int_Tables_number   1
_chemical_formula_structural   CuPSe2
_chemical_formula_sum   'Cu1 P1 Se2'
_cell_volume   91.17861129
_cell_formula_units_Z   1
loop_
 _symmetry_equiv_pos_site_id
 _symmetry_equiv_pos_as_xyz
  1  'x, y, z'
loop_
 _atom_site_type_symbol
 _atom_site_label
 _atom_site_symmetry_multiplicity
 _atom_site_fract_x
 _atom_site_fract_y
 _atom_site_fract_z
 _atom_site_occupancy
  Cu  Cu0  1  0.666578  0.666711  0.513461  1
  P  P1  1  0.333616  0.333192  0.010258  1
  Se  Se2  1  0.666411  0.666794  0.097885  1
  Se  Se3  1  0.333395  0.333303  0.618396  1
