# generated using pymatgen
data_Nb3Co8Si
_symmetry_space_group_name_H-M   'P 1'
_cell_length_a   4.75811169
_cell_length_b   4.75090100
_cell_length_c   7.61394764
_cell_angle_alpha   90.00000000
_cell_angle_beta   89.97601954
_cell_angle_gamma   60.05012572
_symmetry_Int_Tables_number   1
_chemical_formula_structural   Nb3Co8Si
_chemical_formula_sum   'Nb3 Co8 Si1'
_cell_volume   149.13178660
_cell_formula_units_Z   1
loop_
 _symmetry_equiv_pos_site_id
 _symmetry_equiv_pos_as_xyz
  1  'x, y, z'
loop_
 _atom_site_type_symbol
 _atom_site_label
 _atom_site_symmetry_multiplicity
 _atom_site_fract_x
 _atom_site_fract_y
 _atom_site_fract_z
 _atom_site_occupancy
  Nb  Nb0  1  0.666477  0.666762  0.444763  1
  Nb  Nb1  1  0.666245  0.666878  0.071041  1
  Nb  Nb2  1  0.333368  0.333316  0.911290  1
  Co  Co3  1  0.999687  0.000156  0.505103  1
  Co  Co4  1  0.000446  0.999777  0.007302  1
  Co  Co5  1  0.831143  0.337545  0.752043  1
  Co  Co6  1  0.337847  0.831076  0.751992  1
  Co  Co7  1  0.831143  0.831312  0.752043  1
  Co  Co8  1  0.169922  0.659952  0.254865  1
  Co  Co9  1  0.659830  0.170085  0.254655  1
  Co  Co10  1  0.169922  0.170126  0.254865  1
  Si  Si11  1  0.333970  0.333015  0.540040  1
