# generated using pymatgen
data_ZnCr2O4
_symmetry_space_group_name_H-M   'P 1'
_cell_length_a   5.99707029
_cell_length_b   5.99682613
_cell_length_c   18.03388206
_cell_angle_alpha   60.05983285
_cell_angle_beta   60.06890235
_cell_angle_gamma   59.99535612
_symmetry_Int_Tables_number   1
_chemical_formula_structural   ZnCr2O4
_chemical_formula_sum   'Zn6 Cr12 O24'
_cell_volume   459.03034024
_cell_formula_units_Z   6
loop_
 _symmetry_equiv_pos_site_id
 _symmetry_equiv_pos_as_xyz
  1  'x, y, z'
loop_
 _atom_site_type_symbol
 _atom_site_label
 _atom_site_symmetry_multiplicity
 _atom_site_fract_x
 _atom_site_fract_y
 _atom_site_fract_z
 _atom_site_occupancy
  Zn  Zn0  1  0.119886  0.119899  0.046778  1
  Zn  Zn1  1  0.124720  0.124743  0.375268  1
  Zn  Zn2  1  0.496865  0.496797  0.003140  1
  Zn  Zn3  1  0.125834  0.125862  0.707494  1
  Zn  Zn4  1  0.876694  0.876686  0.289980  1
  Zn  Zn5  1  0.875372  0.875363  0.624643  1
  Cr  Cr6  1  0.001091  0.498541  0.167308  1
  Cr  Cr7  1  0.498470  0.498530  0.167295  1
  Cr  Cr8  1  0.000520  0.500402  0.499557  1
  Cr  Cr9  1  0.498500  0.001096  0.167315  1
  Cr  Cr10  1  0.500320  0.500331  0.332999  1
  Cr  Cr11  1  0.500402  0.500413  0.499556  1
  Cr  Cr12  1  0.002962  0.499796  0.832440  1
  Cr  Cr13  1  0.500431  0.000502  0.499559  1
  Cr  Cr14  1  0.499859  0.002914  0.832438  1
  Cr  Cr15  1  0.500782  0.500794  0.665889  1
  Cr  Cr16  1  0.499845  0.499797  0.832446  1
  Cr  Cr17  1  0.877367  0.877105  0.955985  1
  O  O18  1  0.253468  0.253542  0.091459  1
  O  O19  1  0.260735  0.260771  0.239262  1
  O  O20  1  0.253579  0.718604  0.091433  1
  O  O21  1  0.718607  0.253596  0.091446  1
  O  O22  1  0.285275  0.737270  0.246716  1
  O  O23  1  0.261260  0.261272  0.420820  1
  O  O24  1  0.737270  0.285310  0.246710  1
  O  O25  1  0.740384  0.740820  0.092927  1
  O  O26  1  0.261295  0.714991  0.420806  1
  O  O27  1  0.261542  0.261524  0.571803  1
  O  O28  1  0.737304  0.737285  0.246725  1
  O  O29  1  0.714990  0.261300  0.420811  1
  O  O30  1  0.284650  0.738313  0.579576  1
  O  O31  1  0.262242  0.262236  0.753465  1
  O  O32  1  0.738304  0.284656  0.579582  1
  O  O33  1  0.738566  0.738581  0.428104  1
  O  O34  1  0.261519  0.261512  0.905144  1
  O  O35  1  0.262241  0.715107  0.753464  1
  O  O36  1  0.738340  0.738323  0.579575  1
  O  O37  1  0.715111  0.262235  0.753467  1
  O  O38  1  0.271704  0.751805  0.908149  1
  O  O39  1  0.737840  0.737818  0.762152  1
  O  O40  1  0.751721  0.271572  0.908293  1
  O  O41  1  0.752126  0.751986  0.908019  1
