# generated using pymatgen
data_KSb5S8
_symmetry_space_group_name_H-M   'P 1'
_cell_length_a   8.64863383
_cell_length_b   9.15154866
_cell_length_c   19.71886472
_cell_angle_alpha   90.00000000
_cell_angle_beta   90.00000000
_cell_angle_gamma   90.17421747
_symmetry_Int_Tables_number   1
_chemical_formula_structural   KSb5S8
_chemical_formula_sum   'K4 Sb20 S32'
_cell_volume   1560.70924510
_cell_formula_units_Z   4
loop_
 _symmetry_equiv_pos_site_id
 _symmetry_equiv_pos_as_xyz
  1  'x, y, z'
loop_
 _atom_site_type_symbol
 _atom_site_label
 _atom_site_symmetry_multiplicity
 _atom_site_fract_x
 _atom_site_fract_y
 _atom_site_fract_z
 _atom_site_occupancy
  S  S0  1  0.931097  0.487166  0.037361  1
  S  S1  1  0.431097  0.987166  0.962639  1
  S  S2  1  0.168242  0.806096  0.082419  1
  S  S3  1  0.668242  0.306096  0.917581  1
  S  S4  1  0.889039  0.074698  0.019224  1
  S  S5  1  0.389039  0.574698  0.980776  1
  S  S6  1  0.165847  0.714389  0.491775  1
  S  S7  1  0.665847  0.214389  0.508225  1
  S  S8  1  0.895478  0.500830  0.404752  1
  S  S9  1  0.395478  0.000830  0.595248  1
  S  S10  1  0.862901  0.295833  0.197462  1
  S  S11  1  0.362901  0.795833  0.802538  1
  S  S12  1  0.904616  0.680844  0.226758  1
  S  S13  1  0.404616  0.180844  0.773242  1
  S  S14  1  0.524565  0.543031  0.162477  1
  S  S15  1  0.024565  0.043031  0.837523  1
  S  S16  1  0.889968  0.915465  0.396954  1
  S  S17  1  0.389968  0.415465  0.603046  1
  S  S18  1  0.548465  0.753276  0.323372  1
  S  S19  1  0.048465  0.253276  0.676628  1
  S  S20  1  0.234237  0.211382  0.460002  1
  S  S21  1  0.734237  0.711382  0.539998  1
  S  S22  1  0.591179  0.159428  0.340573  1
  S  S23  1  0.091179  0.659428  0.659427  1
  S  S24  1  0.711831  0.528755  0.721639  1
  S  S25  1  0.211831  0.028755  0.278361  1
  S  S26  1  0.749700  0.911030  0.706673  1
  S  S27  1  0.249700  0.411030  0.293327  1
  S  S28  1  0.722935  0.722440  0.888285  1
  S  S29  1  0.222935  0.222440  0.111715  1
  S  S30  1  0.031241  0.454130  0.831605  1
  S  S31  1  0.531241  0.954130  0.168395  1
  K  K32  1  0.687362  0.765571  0.050645  1
  K  K33  1  0.187362  0.265571  0.949355  1
  K  K34  1  0.484109  0.501319  0.446505  1
  K  K35  1  0.984109  0.001319  0.553495  1
  Sb  Sb36  1  0.064968  0.464146  0.152955  1
  Sb  Sb37  1  0.564968  0.964146  0.847045  1
  Sb  Sb38  1  0.730107  0.296925  0.044728  1
  Sb  Sb39  1  0.230107  0.796925  0.955272  1
  Sb  Sb40  1  0.028719  0.027660  0.129835  1
  Sb  Sb41  1  0.528719  0.527660  0.870165  1
  Sb  Sb42  1  0.062423  0.705649  0.369370  1
  Sb  Sb43  1  0.562423  0.205649  0.630630  1
  Sb  Sb44  1  0.706154  0.506504  0.262180  1
  Sb  Sb45  1  0.206154  0.006504  0.737820  1
  Sb  Sb46  1  0.379007  0.754198  0.215898  1
  Sb  Sb47  1  0.879007  0.254198  0.784102  1
  Sb  Sb48  1  0.738694  0.949550  0.286768  1
  Sb  Sb49  1  0.238694  0.449550  0.713232  1
  Sb  Sb50  1  0.466914  0.047554  0.460636  1
  Sb  Sb51  1  0.966914  0.547554  0.539364  1
  Sb  Sb52  1  0.082387  0.227872  0.350427  1
  Sb  Sb53  1  0.582387  0.727872  0.649573  1
  Sb  Sb54  1  0.406215  0.200361  0.230081  1
  Sb  Sb55  1  0.906215  0.700361  0.769919  1
