# generated using pymatgen
data_Zn(NCl2)2
_symmetry_space_group_name_H-M   'P 1'
_cell_length_a   12.81441717
_cell_length_b   8.82302833
_cell_length_c   37.19920772
_cell_angle_alpha   90.00000000
_cell_angle_beta   91.24584827
_cell_angle_gamma   90.00000000
_symmetry_Int_Tables_number   1
_chemical_formula_structural   Zn(NCl2)2
_chemical_formula_sum   'Zn16 N32 Cl64'
_cell_volume   4204.82131480
_cell_formula_units_Z   16
loop_
 _symmetry_equiv_pos_site_id
 _symmetry_equiv_pos_as_xyz
  1  'x, y, z'
loop_
 _atom_site_type_symbol
 _atom_site_label
 _atom_site_symmetry_multiplicity
 _atom_site_fract_x
 _atom_site_fract_y
 _atom_site_fract_z
 _atom_site_occupancy
  Zn  Zn0  1  0.236704  0.059897  0.479557  1
  Zn  Zn1  1  0.236704  0.940103  0.979557  1
  Zn  Zn2  1  0.247639  0.042423  0.721012  1
  Zn  Zn3  1  0.247639  0.957577  0.221012  1
  Zn  Zn4  1  0.650111  0.125127  0.600130  1
  Zn  Zn5  1  0.650111  0.874873  0.100130  1
  Zn  Zn6  1  0.564719  0.983620  0.854195  1
  Zn  Zn7  1  0.564719  0.016380  0.354195  1
  Zn  Zn8  1  0.853251  0.486824  0.011005  1
  Zn  Zn9  1  0.853251  0.513176  0.511005  1
  Zn  Zn10  1  0.773311  0.392120  0.779149  1
  Zn  Zn11  1  0.773311  0.607880  0.279149  1
  Zn  Zn12  1  0.079298  0.495481  0.898032  1
  Zn  Zn13  1  0.079298  0.504519  0.398032  1
  Zn  Zn14  1  0.233994  0.512820  0.598076  1
  Zn  Zn15  1  0.233994  0.487180  0.098076  1
  N  N16  1  0.126851  0.013012  0.820438  1
  N  N17  1  0.126851  0.986988  0.320438  1
  N  N18  1  0.089284  0.929097  0.582075  1
  N  N19  1  0.089284  0.070903  0.082075  1
  N  N20  1  0.813868  0.015279  0.927419  1
  N  N21  1  0.813868  0.984721  0.427419  1
  N  N22  1  0.825944  -0.005843  0.700278  1
  N  N23  1  0.825944  0.005843  0.200278  1
  N  N24  1  0.298886  0.968906  0.668435  1
  N  N25  1  0.298886  0.031094  0.168434  1
  N  N26  1  0.334121  0.078295  0.944395  1
  N  N27  1  0.334121  0.921705  0.444395  1
  N  N28  1  0.629271  0.062330  0.543223  1
  N  N29  1  0.629271  0.937670  0.043223  1
  N  N30  1  0.525528  0.951510  0.780983  1
  N  N31  1  0.525528  0.048489  0.280983  1
  N  N32  1  0.621774  0.502672  0.676219  1
  N  N33  1  0.621774  0.497328  0.176219  1
  N  N34  1  0.595362  0.499909  0.944444  1
  N  N35  1  0.595362  0.500091  0.444444  1
  N  N36  1  0.348993  0.538860  0.556381  1
  N  N37  1  0.348993  0.461140  0.056381  1
  N  N38  1  0.308521  0.531419  0.823179  1
  N  N39  1  0.308521  0.468581  0.323179  1
  N  N40  1  0.816593  0.571973  0.816748  1
  N  N41  1  0.816593  0.428027  0.316748  1
  N  N42  1  0.689983  0.540211  0.582775  1
  N  N43  1  0.689983  0.459789  0.082775  1
  N  N44  1  0.110858  0.509300  0.956496  1
  N  N45  1  0.110858  0.490700  0.456496  1
  N  N46  1  0.095298  0.422106  0.701548  1
  N  N47  1  0.095298  0.577894  0.201548  1
  Cl  Cl48  1  0.220124  0.967270  0.584999  1
  Cl  Cl49  1  0.220124  0.032730  0.084999  1
  Cl  Cl50  1  0.112228  0.910346  0.489034  1
  Cl  Cl51  1  0.112228  0.089654  0.989034  1
  Cl  Cl52  1  0.329759  0.257573  0.486215  1
  Cl  Cl53  1  0.329759  0.742427  0.986215  1
  Cl  Cl54  1  0.403804  0.778028  0.453721  1
  Cl  Cl55  1  0.403804  0.221972  0.953721  1
  Cl  Cl56  1  0.248901  0.001897  0.831235  1
  Cl  Cl57  1  0.248901  -0.001897  0.331235  1
  Cl  Cl58  1  0.135239  0.872964  0.729325  1
  Cl  Cl59  1  0.135239  0.127036  0.229325  1
  Cl  Cl60  1  0.347391  0.228382  0.729691  1
  Cl  Cl61  1  0.347391  0.771618  0.229691  1
  Cl  Cl62  1  0.473584  0.815414  0.758595  1
  Cl  Cl63  1  0.473584  0.184586  0.258595  1
  Cl  Cl64  1  0.701755  0.019743  0.703013  1
  Cl  Cl65  1  0.701755  0.980257  0.203013  1
  Cl  Cl66  1  0.813361  0.121108  0.604407  1
  Cl  Cl67  1  0.813361  0.878892  0.104407  1
  Cl  Cl68  1  0.611676  0.676553  0.591051  1
  Cl  Cl69  1  0.611676  0.323447  0.091051  1
  Cl  Cl70  1  0.491296  0.133741  0.613444  1
  Cl  Cl71  1  0.491296  0.866259  0.113444  1
  Cl  Cl72  1  0.691618  0.974837  0.941504  1
  Cl  Cl73  1  0.691618  0.025163  0.441504  1
  Cl  Cl74  1  0.814024  0.048666  0.882064  1
  Cl  Cl75  1  0.814024  0.951334  0.382064  1
  Cl  Cl76  1  0.588371  0.748864  0.854402  1
  Cl  Cl77  1  0.588371  0.251136  0.354402  1
  Cl  Cl78  1  0.529082  0.211533  0.863203  1
  Cl  Cl79  1  0.529082  0.788467  0.363203  1
  Cl  Cl80  1  0.713568  0.493288  0.925308  1
  Cl  Cl81  1  0.713568  0.506712  0.425308  1
  Cl  Cl82  1  0.605599  0.553430  0.988760  1
  Cl  Cl83  1  0.605599  0.446570  0.488760  1
  Cl  Cl84  1  0.890736  0.714330  0.003721  1
  Cl  Cl85  1  0.890736  0.285670  0.503721  1
  Cl  Cl86  1  0.825826  0.254817  0.015811  1
  Cl  Cl87  1  0.825826  0.745183  0.515811  1
  Cl  Cl88  1  0.746225  0.515838  0.682790  1
  Cl  Cl89  1  0.746225  0.484162  0.182790  1
  Cl  Cl90  1  0.609975  0.409015  0.772428  1
  Cl  Cl91  1  0.609975  0.590985  0.272428  1
  Cl  Cl92  1  0.861131  0.733182  0.806624  1
  Cl  Cl93  1  0.861131  0.266818  0.306624  1
  Cl  Cl94  1  0.920797  0.297887  0.767621  1
  Cl  Cl95  1  0.920797  0.702113  0.267621  1
  Cl  Cl96  1  0.188640  0.497515  0.805233  1
  Cl  Cl97  1  0.188640  0.502485  0.305233  1
  Cl  Cl98  1  0.305466  0.552610  0.869221  1
  Cl  Cl99  1  0.305466  0.447390  0.369221  1
  Cl  Cl100  1  0.088582  0.258689  0.891886  1
  Cl  Cl101  1  0.088582  0.741311  0.391886  1
  Cl  Cl102  1  0.032199  0.722803  0.890159  1
  Cl  Cl103  1  0.032199  0.277197  0.390159  1
  Cl  Cl104  1  0.114233  0.420049  0.565030  1
  Cl  Cl105  1  0.114233  0.579951  0.065030  1
  Cl  Cl106  1  0.321774  0.585300  0.643466  1
  Cl  Cl107  1  0.321774  0.414700  0.143466  1
  Cl  Cl108  1  0.057238  0.325126  0.666791  1
  Cl  Cl109  1  0.057238  0.674874  0.166791  1
  Cl  Cl110  1  0.053535  0.814559  0.616598  1
  Cl  Cl111  1  0.053535  0.185441  0.116598  1
