# generated using pymatgen
data_Ca3BiAu14
_symmetry_space_group_name_H-M   'P 1'
_cell_length_a   5.55224327
_cell_length_b   5.55224327
_cell_length_c   14.13212697
_cell_angle_alpha   90.00000000
_cell_angle_beta   90.00000000
_cell_angle_gamma   120.00000000
_symmetry_Int_Tables_number   1
_chemical_formula_structural   Ca3BiAu14
_chemical_formula_sum   'Ca3 Bi1 Au14'
_cell_volume   377.28986212
_cell_formula_units_Z   1
loop_
 _symmetry_equiv_pos_site_id
 _symmetry_equiv_pos_as_xyz
  1  'x, y, z'
loop_
 _atom_site_type_symbol
 _atom_site_label
 _atom_site_symmetry_multiplicity
 _atom_site_fract_x
 _atom_site_fract_y
 _atom_site_fract_z
 _atom_site_occupancy
  Ca  Ca0  1  0.333333  0.666667  0.666921  1
  Ca  Ca1  1  -0.000000  0.000000  0.994449  1
  Ca  Ca2  1  0.666667  0.333333  0.340166  1
  Bi  Bi3  1  -0.000000  0.000000  0.250175  1
  Au  Au4  1  0.666667  0.333333  0.583857  1
  Au  Au5  1  0.333333  0.666667  0.913393  1
  Au  Au6  1  0.499226  0.500774  0.119458  1
  Au  Au7  1  0.167358  0.832642  0.464158  1
  Au  Au8  1  0.833211  0.166789  0.791673  1
  Au  Au9  1  0.499226  0.998452  0.119458  1
  Au  Au10  1  0.167358  0.334715  0.464158  1
  Au  Au11  1  0.833211  0.666423  0.791673  1
  Au  Au12  1  0.333333  0.666667  0.292981  1
  Au  Au13  1  -0.000000  -0.000000  0.626935  1
  Au  Au14  1  0.666667  0.333333  0.955261  1
  Au  Au15  1  0.001548  0.500774  0.119458  1
  Au  Au16  1  0.665285  0.832642  0.464158  1
  Au  Au17  1  0.333577  0.166789  0.791673  1
