# generated using pymatgen
data_Mo3(SeS2)2
_symmetry_space_group_name_H-M   'P 1'
_cell_length_a   3.23311019
_cell_length_b   3.23314110
_cell_length_c   29.63681664
_cell_angle_alpha   89.99990116
_cell_angle_beta   90.00000000
_cell_angle_gamma   119.99968367
_symmetry_Int_Tables_number   1
_chemical_formula_structural   Mo3(SeS2)2
_chemical_formula_sum   'Mo3 Se2 S4'
_cell_volume   268.29262444
_cell_formula_units_Z   1
loop_
 _symmetry_equiv_pos_site_id
 _symmetry_equiv_pos_as_xyz
  1  'x, y, z'
loop_
 _atom_site_type_symbol
 _atom_site_label
 _atom_site_symmetry_multiplicity
 _atom_site_fract_x
 _atom_site_fract_y
 _atom_site_fract_z
 _atom_site_occupancy
  Mo  Mo0  1  0.333310  0.666620  0.115644  1
  Mo  Mo1  1  0.333310  0.666621  0.578336  1
  Mo  Mo2  1  0.666693  0.333387  0.346993  1
  Se  Se3  1  0.666630  0.333259  0.520785  1
  Se  Se4  1  0.666651  0.333302  0.635860  1
  S  S5  1  0.333352  0.666705  0.399241  1
  S  S6  1  0.666650  0.333299  0.063348  1
  S  S7  1  0.666650  0.333299  0.167939  1
  S  S8  1  0.333354  0.666708  0.294694  1
