# generated using pymatgen
data_Te2W3S4
_symmetry_space_group_name_H-M   'P 1'
_cell_length_a   3.30067774
_cell_length_b   3.30068766
_cell_length_c   30.56994254
_cell_angle_alpha   90.00025426
_cell_angle_beta   90.00000000
_cell_angle_gamma   119.99990056
_symmetry_Int_Tables_number   1
_chemical_formula_structural   Te2W3S4
_chemical_formula_sum   'Te2 W3 S4'
_cell_volume   288.42522721
_cell_formula_units_Z   1
loop_
 _symmetry_equiv_pos_site_id
 _symmetry_equiv_pos_as_xyz
  1  'x, y, z'
loop_
 _atom_site_type_symbol
 _atom_site_label
 _atom_site_symmetry_multiplicity
 _atom_site_fract_x
 _atom_site_fract_y
 _atom_site_fract_z
 _atom_site_occupancy
  Te  Te0  1  0.666647  0.333293  0.515293  1
  Te  Te1  1  0.666649  0.333297  0.641373  1
  W  W2  1  0.333309  0.666618  0.115652  1
  W  W3  1  0.333309  0.666619  0.578362  1
  W  W4  1  0.666689  0.333378  0.346939  1
  S  S5  1  0.333354  0.666710  0.397180  1
  S  S6  1  0.666646  0.333291  0.065405  1
  S  S7  1  0.666645  0.333288  0.165906  1
  S  S8  1  0.333353  0.666706  0.296731  1
