# generated using pymatgen
data_Zn(NiO2)2
_symmetry_space_group_name_H-M   'P 1'
_cell_length_a   5.89352257
_cell_length_b   5.89361107
_cell_length_c   17.73626773
_cell_angle_alpha   60.12479267
_cell_angle_beta   60.13005863
_cell_angle_gamma   59.98287159
_symmetry_Int_Tables_number   1
_chemical_formula_structural   Zn(NiO2)2
_chemical_formula_sum   'Zn6 Ni12 O24'
_cell_volume   436.39622218
_cell_formula_units_Z   6
loop_
 _symmetry_equiv_pos_site_id
 _symmetry_equiv_pos_as_xyz
  1  'x, y, z'
loop_
 _atom_site_type_symbol
 _atom_site_label
 _atom_site_symmetry_multiplicity
 _atom_site_fract_x
 _atom_site_fract_y
 _atom_site_fract_z
 _atom_site_occupancy
  Zn  Zn0  1  0.120271  0.120456  0.046397  1
  Zn  Zn1  1  0.120118  0.120256  0.379985  1
  Zn  Zn2  1  0.500023  0.500027  0.333420  1
  Zn  Zn3  1  0.121719  0.121962  0.711417  1
  Zn  Zn4  1  0.501324  0.501306  0.998667  1
  Zn  Zn5  1  0.876355  0.876199  0.623648  1
  Ni  Ni6  1  0.499950  0.499934  0.166103  1
  Ni  Ni7  1  0.499877  0.001870  0.166110  1
  Ni  Ni8  1  0.498655  0.498661  0.501452  1
  Ni  Ni9  1  0.001854  0.499875  0.166101  1
  Ni  Ni10  1  0.498626  0.998584  0.501409  1
  Ni  Ni11  1  0.500242  0.500279  0.666323  1
  Ni  Ni12  1  0.880283  0.880141  0.286425  1
  Ni  Ni13  1  0.499674  0.499714  0.832660  1
  Ni  Ni14  1  0.998595  0.498611  0.501398  1
  Ni  Ni15  1  0.499991  0.002197  0.832724  1
  Ni  Ni16  1  0.002275  0.499975  0.832724  1
  Ni  Ni17  1  0.877827  0.877642  0.955636  1
  O  O18  1  0.254452  0.254446  0.093554  1
  O  O19  1  0.254581  0.254788  0.245605  1
  O  O20  1  0.254146  0.710385  0.093831  1
  O  O21  1  0.710263  0.254161  0.093859  1
  O  O22  1  0.251614  0.251706  0.428500  1
  O  O23  1  0.287959  0.748848  0.238020  1
  O  O24  1  0.257215  0.257289  0.575571  1
  O  O25  1  0.748858  0.287869  0.238047  1
  O  O26  1  0.749085  0.748815  0.083957  1
  O  O27  1  0.251639  0.711039  0.428823  1
  O  O28  1  0.710970  0.251760  0.428818  1
  O  O29  1  0.748713  0.748702  0.238270  1
  O  O30  1  0.263478  0.263675  0.753055  1
  O  O31  1  0.290455  0.739179  0.576875  1
  O  O32  1  0.739310  0.290349  0.576868  1
  O  O33  1  0.258329  0.258509  0.908171  1
  O  O34  1  0.743415  0.743376  0.423838  1
  O  O35  1  0.263131  0.713762  0.753452  1
  O  O36  1  0.713549  0.263320  0.753452  1
  O  O37  1  0.738850  0.738780  0.577433  1
  O  O38  1  0.271856  0.750436  0.908845  1
  O  O39  1  0.750619  0.271674  0.908845  1
  O  O40  1  0.739398  0.739178  0.760628  1
  O  O41  1  0.750459  0.750260  0.909078  1
