# generated using pymatgen
data_InGa3N4
_symmetry_space_group_name_H-M   'P 1'
_cell_length_a   3.30560616
_cell_length_b   3.30560616
_cell_length_c   10.82516355
_cell_angle_alpha   89.99902476
_cell_angle_beta   90.00097524
_cell_angle_gamma   120.00348733
_symmetry_Int_Tables_number   1
_chemical_formula_structural   InGa3N4
_chemical_formula_sum   'In1 Ga3 N4'
_cell_volume   102.43586871
_cell_formula_units_Z   1
loop_
 _symmetry_equiv_pos_site_id
 _symmetry_equiv_pos_as_xyz
  1  'x, y, z'
loop_
 _atom_site_type_symbol
 _atom_site_label
 _atom_site_symmetry_multiplicity
 _atom_site_fract_x
 _atom_site_fract_y
 _atom_site_fract_z
 _atom_site_occupancy
  In  In0  1  0.666617  0.333383  0.998534  1
  Ga  Ga1  1  0.333345  0.666655  0.259491  1
  Ga  Ga2  1  0.333346  0.666654  0.738009  1
  Ga  Ga3  1  0.666674  0.333326  0.498224  1
  N  N4  1  0.333322  0.666678  0.079963  1
  N  N5  1  0.333346  0.666654  0.555965  1
  N  N6  1  0.666676  0.333324  0.316436  1
  N  N7  1  0.666675  0.333325  0.795179  1
