# generated using pymatgen
data_MnZn4O5
_symmetry_space_group_name_H-M   'P 1'
_cell_length_a   3.31210268
_cell_length_b   3.31210268
_cell_length_c   26.93411782
_cell_angle_alpha   89.84830488
_cell_angle_beta   90.15169512
_cell_angle_gamma   119.79271065
_symmetry_Int_Tables_number   1
_chemical_formula_structural   MnZn4O5
_chemical_formula_sum   'Mn2 Zn8 O10'
_cell_volume   256.41433491
_cell_formula_units_Z   2
loop_
 _symmetry_equiv_pos_site_id
 _symmetry_equiv_pos_as_xyz
  1  'x, y, z'
loop_
 _atom_site_type_symbol
 _atom_site_label
 _atom_site_symmetry_multiplicity
 _atom_site_fract_x
 _atom_site_fract_y
 _atom_site_fract_z
 _atom_site_occupancy
  Mn  Mn0  1  0.332606  0.667394  0.098387  1
  Mn  Mn1  1  0.332155  0.667845  0.300044  1
  Zn  Zn2  1  0.332686  0.667314  0.499928  1
  Zn  Zn3  1  0.332725  0.667275  0.699337  1
  Zn  Zn4  1  0.332682  0.667318  0.898559  1
  Zn  Zn5  1  0.667558  0.332442  0.199929  1
  Zn  Zn6  1  0.666708  0.333292  0.401414  1
  Zn  Zn7  1  0.666923  0.333077  0.599423  1
  Zn  Zn8  1  0.666915  0.333085  0.799221  1
  Zn  Zn9  1  0.666941  0.333059  0.996809  1
  O  O10  1  0.333130  0.666870  0.020856  1
  O  O11  1  0.333987  0.666013  0.223099  1
  O  O12  1  0.332822  0.667178  0.424948  1
  O  O13  1  0.333035  0.666965  0.624006  1
  O  O14  1  0.333034  0.666966  0.823749  1
  O  O15  1  0.667466  0.332534  0.126430  1
  O  O16  1  0.666837  0.333163  0.327209  1
  O  O17  1  0.667247  0.332753  0.524137  1
  O  O18  1  0.667263  0.332737  0.723996  1
  O  O19  1  0.667280  0.332720  0.922519  1
