# generated using pymatgen
data_YAgTe2
_symmetry_space_group_name_H-M   'P 1'
_cell_length_a   4.52641683
_cell_length_b   4.52661857
_cell_length_c   7.31460237
_cell_angle_alpha   90.00218000
_cell_angle_beta   90.00000001
_cell_angle_gamma   60.00147317
_symmetry_Int_Tables_number   1
_chemical_formula_structural   YAgTe2
_chemical_formula_sum   'Y1 Ag1 Te2'
_cell_volume   129.79448699
_cell_formula_units_Z   1
loop_
 _symmetry_equiv_pos_site_id
 _symmetry_equiv_pos_as_xyz
  1  'x, y, z'
loop_
 _atom_site_type_symbol
 _atom_site_label
 _atom_site_symmetry_multiplicity
 _atom_site_fract_x
 _atom_site_fract_y
 _atom_site_fract_z
 _atom_site_occupancy
  Y  Y0  1  0.000006  -0.000012  0.986218  1
  Ag  Ag1  1  0.666674  0.666652  0.381949  1
  Te  Te2  1  0.666687  0.666627  0.764592  1
  Te  Te3  1  0.333333  0.333333  0.232241  1
