# generated using pymatgen
data_Li15H9N8
_symmetry_space_group_name_H-M   'P 1'
_cell_length_a   7.18604869
_cell_length_b   7.18575195
_cell_length_c   10.41769308
_cell_angle_alpha   90.00000000
_cell_angle_beta   90.00000000
_cell_angle_gamma   91.38456788
_symmetry_Int_Tables_number   1
_chemical_formula_structural   Li15H9N8
_chemical_formula_sum   'Li30 H18 N16'
_cell_volume   537.78305953
_cell_formula_units_Z   2
loop_
 _symmetry_equiv_pos_site_id
 _symmetry_equiv_pos_as_xyz
  1  'x, y, z'
loop_
 _atom_site_type_symbol
 _atom_site_label
 _atom_site_symmetry_multiplicity
 _atom_site_fract_x
 _atom_site_fract_y
 _atom_site_fract_z
 _atom_site_occupancy
  Li  Li0  1  0.376418  0.766372  0.614967  1
  Li  Li1  1  0.376418  0.266372  0.385033  1
  Li  Li2  1  0.817829  0.243926  0.150263  1
  Li  Li3  1  0.817829  0.743926  0.849737  1
  Li  Li4  1  0.364250  0.701460  0.102863  1
  Li  Li5  1  0.364250  0.201460  0.897137  1
  Li  Li6  1  0.871891  0.231314  0.612259  1
  Li  Li7  1  0.871891  0.731314  0.387741  1
  Li  Li8  1  0.373382  0.788547  0.886698  1
  Li  Li9  1  0.373382  0.288547  0.113302  1
  Li  Li10  1  0.862756  0.277709  0.385068  1
  Li  Li11  1  0.862756  0.777709  0.614932  1
  Li  Li12  1  0.117398  0.715512  0.754678  1
  Li  Li13  1  0.117398  0.215512  0.245322  1
  Li  Li14  1  0.106378  0.997972  0.876574  1
  Li  Li15  1  0.106378  0.497972  0.123426  1
  Li  Li16  1  0.682398  0.508534  0.592129  1
  Li  Li17  1  0.682398  0.008534  0.407871  1
  Li  Li18  1  0.141273  0.982035  0.104893  1
  Li  Li19  1  0.141273  0.482035  0.895107  1
  Li  Li20  1  0.619678  0.490819  0.366785  1
  Li  Li21  1  0.619678  0.990819  0.633215  1
  Li  Li22  1  0.120822  0.005454  0.631697  1
  Li  Li23  1  0.120822  0.505454  0.368303  1
  Li  Li24  1  0.563732  0.494975  0.910640  1
  Li  Li25  1  0.563732  0.994975  0.089360  1
  Li  Li26  1  0.072746  0.000050  0.410717  1
  Li  Li27  1  0.072746  0.500050  0.589283  1
  Li  Li28  1  0.627229  0.504597  0.135960  1
  Li  Li29  1  0.627229  0.004597  0.864040  1
  H  H30  1  0.222164  0.763445  0.454699  1
  H  H31  1  0.222164  0.263445  0.545301  1
  H  H32  1  0.721712  0.263540  0.955783  1
  H  H33  1  0.721712  0.763540  0.044217  1
  H  H34  1  0.527327  0.753460  0.438286  1
  H  H35  1  0.527327  0.253460  0.561714  1
  H  H36  1  0.002724  0.239284  0.981756  1
  H  H37  1  0.002724  0.739284  0.018244  1
  H  H38  1  0.886466  0.114640  0.791665  1
  H  H39  1  0.886466  0.614640  0.208335  1
  H  H40  1  0.345608  0.420619  0.705571  1
  H  H41  1  0.345608  0.920619  0.294429  1
  H  H42  1  0.849880  0.927204  0.209597  1
  H  H43  1  0.849880  0.427204  0.790403  1
  H  H44  1  0.367759  0.610077  0.296291  1
  H  H45  1  0.367759  0.110077  0.703709  1
  H  H46  1  0.492267  0.585305  0.738705  1
  H  H47  1  0.492267  0.085305  0.261295  1
  N  N48  1  0.600103  0.750610  0.991071  1
  N  N49  1  0.600103  0.250610  0.008929  1
  N  N50  1  0.107583  0.257908  0.484606  1
  N  N51  1  0.107583  0.757908  0.515394  1
  N  N52  1  0.138871  0.744452  0.985512  1
  N  N53  1  0.138871  0.244452  0.014488  1
  N  N54  1  0.632663  0.257761  0.493717  1
  N  N55  1  0.632663  0.757761  0.506283  1
  N  N56  1  0.363743  0.987519  0.756589  1
  N  N57  1  0.363743  0.487519  0.243411  1
  N  N58  1  0.890216  0.533170  0.728445  1
  N  N59  1  0.890216  0.033170  0.271555  1
  N  N60  1  0.360760  0.035199  0.236174  1
  N  N61  1  0.360760  0.535199  0.763826  1
  N  N62  1  0.870971  0.488531  0.256496  1
  N  N63  1  0.870971  0.988531  0.743504  1
