# generated using pymatgen
data_Al2ZnS4
_symmetry_space_group_name_H-M   'P 1'
_cell_length_a   3.68489533
_cell_length_b   3.68485247
_cell_length_c   11.95318037
_cell_angle_alpha   89.99999999
_cell_angle_beta   89.99975514
_cell_angle_gamma   119.99961488
_symmetry_Int_Tables_number   1
_chemical_formula_structural   Al2ZnS4
_chemical_formula_sum   'Al2 Zn1 S4'
_cell_volume   140.55977422
_cell_formula_units_Z   1
loop_
 _symmetry_equiv_pos_site_id
 _symmetry_equiv_pos_as_xyz
  1  'x, y, z'
loop_
 _atom_site_type_symbol
 _atom_site_label
 _atom_site_symmetry_multiplicity
 _atom_site_fract_x
 _atom_site_fract_y
 _atom_site_fract_z
 _atom_site_occupancy
  Al  Al0  1  0.666632  0.333316  0.921165  1
  Al  Al1  1  0.333355  0.666678  0.615622  1
  Zn  Zn2  1  0.999964  0.999982  0.303472  1
  S  S3  1  0.999968  0.999984  0.995564  1
  S  S4  1  0.000006  0.000003  0.520360  1
  S  S5  1  0.666649  0.333324  0.732952  1
  S  S6  1  0.666626  0.333313  0.242865  1
