# generated using pymatgen
data_Zn(CuO2)2
_symmetry_space_group_name_H-M   'P 1'
_cell_length_a   5.91960145
_cell_length_b   5.91963011
_cell_length_c   17.73811503
_cell_angle_alpha   59.96300336
_cell_angle_beta   59.96267748
_cell_angle_gamma   60.04597889
_symmetry_Int_Tables_number   1
_chemical_formula_structural   Zn(CuO2)2
_chemical_formula_sum   'Zn6 Cu12 O24'
_cell_volume   439.42611575
_cell_formula_units_Z   6
loop_
 _symmetry_equiv_pos_site_id
 _symmetry_equiv_pos_as_xyz
  1  'x, y, z'
loop_
 _atom_site_type_symbol
 _atom_site_label
 _atom_site_symmetry_multiplicity
 _atom_site_fract_x
 _atom_site_fract_y
 _atom_site_fract_z
 _atom_site_occupancy
  Zn  Zn0  1  0.120097  0.120110  0.046596  1
  Zn  Zn1  1  0.120873  0.120870  0.379069  1
  Zn  Zn2  1  0.499725  0.499734  0.333715  1
  Zn  Zn3  1  0.122612  0.122607  0.710653  1
  Zn  Zn4  1  0.500623  0.500641  0.999342  1
  Zn  Zn5  1  0.876704  0.876697  0.623325  1
  Cu  Cu6  1  0.499500  0.499494  0.167100  1
  Cu  Cu7  1  0.499533  0.999791  0.167072  1
  Cu  Cu8  1  0.500261  0.500250  0.500020  1
  Cu  Cu9  1  0.999796  0.499531  0.167067  1
  Cu  Cu10  1  0.500472  0.999246  0.499991  1
  Cu  Cu11  1  0.500005  0.500007  0.666703  1
  Cu  Cu12  1  0.877686  0.877690  0.289086  1
  Cu  Cu13  1  0.499551  0.499549  0.833632  1
  Cu  Cu14  1  0.999247  0.500464  0.499983  1
  Cu  Cu15  1  0.499530  0.999767  0.833679  1
  Cu  Cu16  1  0.999783  0.499534  0.833688  1
  Cu  Cu17  1  0.876046  0.876064  0.957277  1
  O  O18  1  0.254376  0.254353  0.092557  1
  O  O19  1  0.256342  0.256327  0.243881  1
  O  O20  1  0.254046  0.713617  0.092628  1
  O  O21  1  0.713616  0.254037  0.092630  1
  O  O22  1  0.253067  0.253015  0.426334  1
  O  O23  1  0.282888  0.748876  0.239887  1
  O  O24  1  0.258617  0.258653  0.574880  1
  O  O25  1  0.748862  0.282895  0.239886  1
  O  O26  1  0.745028  0.745058  0.087972  1
  O  O27  1  0.252833  0.715216  0.426207  1
  O  O28  1  0.715222  0.252800  0.426216  1
  O  O29  1  0.748536  0.748560  0.239975  1
  O  O30  1  0.262732  0.262780  0.753610  1
  O  O31  1  0.288789  0.739066  0.577929  1
  O  O32  1  0.739024  0.288780  0.577942  1
  O  O33  1  0.258437  0.258445  0.908224  1
  O  O34  1  0.745912  0.745866  0.420817  1
  O  O35  1  0.262512  0.713809  0.753506  1
  O  O36  1  0.713796  0.262549  0.753507  1
  O  O37  1  0.738805  0.738866  0.577822  1
  O  O38  1  0.276170  0.749542  0.908384  1
  O  O39  1  0.749588  0.276159  0.908379  1
  O  O40  1  0.739353  0.739332  0.760511  1
  O  O41  1  0.749399  0.749353  0.908313  1
