# generated using pymatgen
data_InAgS2
_symmetry_space_group_name_H-M   'P 1'
_cell_length_a   4.14445752
_cell_length_b   4.14462747
_cell_length_c   6.87421190
_cell_angle_alpha   90.00000000
_cell_angle_beta   89.97227718
_cell_angle_gamma   59.99864341
_symmetry_Int_Tables_number   1
_chemical_formula_structural   InAgS2
_chemical_formula_sum   'In1 Ag1 S2'
_cell_volume   102.25881026
_cell_formula_units_Z   1
loop_
 _symmetry_equiv_pos_site_id
 _symmetry_equiv_pos_as_xyz
  1  'x, y, z'
loop_
 _atom_site_type_symbol
 _atom_site_label
 _atom_site_symmetry_multiplicity
 _atom_site_fract_x
 _atom_site_fract_y
 _atom_site_fract_z
 _atom_site_occupancy
  In  In0  1  0.333231  0.333385  0.977467  1
  Ag  Ag1  1  0.666714  0.666643  0.514697  1
  S  S2  1  0.666670  0.666665  0.130473  1
  S  S3  1  0.333385  0.333307  0.627363  1
