# generated using pymatgen
data_Ho3(SbPd2)4
_symmetry_space_group_name_H-M   'P 1'
_cell_length_a   9.36536647
_cell_length_b   9.36536647
_cell_length_c   9.36536647
_cell_angle_alpha   60.00000000
_cell_angle_beta   60.00000000
_cell_angle_gamma   60.00000000
_symmetry_Int_Tables_number   1
_chemical_formula_structural   Ho3(SbPd2)4
_chemical_formula_sum   'Ho6 Sb8 Pd16'
_cell_volume   580.84376352
_cell_formula_units_Z   2
loop_
 _symmetry_equiv_pos_site_id
 _symmetry_equiv_pos_as_xyz
  1  'x, y, z'
loop_
 _atom_site_type_symbol
 _atom_site_label
 _atom_site_symmetry_multiplicity
 _atom_site_fract_x
 _atom_site_fract_y
 _atom_site_fract_z
 _atom_site_occupancy
  Ho  Ho0  1  0.724400  0.724400  0.275600  1
  Ho  Ho1  1  0.275600  0.275600  0.724400  1
  Ho  Ho2  1  0.724400  0.275600  0.724400  1
  Ho  Ho3  1  0.275600  0.724400  0.275600  1
  Ho  Ho4  1  0.275600  0.724400  0.724400  1
  Ho  Ho5  1  0.724400  0.275600  0.275600  1
  Sb  Sb6  1  -0.000000  -0.000000  0.000000  1
  Sb  Sb7  1  -0.000000  -0.000000  0.500000  1
  Sb  Sb8  1  0.500000  0.500000  0.000000  1
  Sb  Sb9  1  -0.000000  0.500000  0.000000  1
  Sb  Sb10  1  0.500000  -0.000000  0.500000  1
  Sb  Sb11  1  0.500000  -0.000000  0.000000  1
  Sb  Sb12  1  -0.000000  0.500000  0.500000  1
  Sb  Sb13  1  0.500000  0.500000  0.500000  1
  Pd  Pd14  1  0.881235  0.881235  0.881235  1
  Pd  Pd15  1  0.118765  0.118765  0.118765  1
  Pd  Pd16  1  0.356296  0.881235  0.881235  1
  Pd  Pd17  1  0.881235  0.356296  0.881235  1
  Pd  Pd18  1  0.643704  0.118765  0.118765  1
  Pd  Pd19  1  0.118765  0.643704  0.118765  1
  Pd  Pd20  1  0.881235  0.881235  0.356296  1
  Pd  Pd21  1  0.118765  0.118765  0.643704  1
  Pd  Pd22  1  0.666318  0.666318  0.666318  1
  Pd  Pd23  1  0.333682  0.333682  0.333682  1
  Pd  Pd24  1  0.001046  0.666318  0.666318  1
  Pd  Pd25  1  0.666318  0.001046  0.666318  1
  Pd  Pd26  1  0.998954  0.333682  0.333682  1
  Pd  Pd27  1  0.333682  0.998954  0.333682  1
  Pd  Pd28  1  0.666318  0.666318  0.001046  1
  Pd  Pd29  1  0.333682  0.333682  0.998954  1
