# generated using pymatgen
data_Co2(PO3)5
_symmetry_space_group_name_H-M   'P 1'
_cell_length_a   12.86185828
_cell_length_b   8.48690282
_cell_length_c   5.29682446
_cell_angle_alpha   90.00000000
_cell_angle_beta   94.57465436
_cell_angle_gamma   90.00000000
_symmetry_Int_Tables_number   1
_chemical_formula_structural   Co2(PO3)5
_chemical_formula_sum   'Co4 P10 O30'
_cell_volume   576.34532020
_cell_formula_units_Z   2
loop_
 _symmetry_equiv_pos_site_id
 _symmetry_equiv_pos_as_xyz
  1  'x, y, z'
loop_
 _atom_site_type_symbol
 _atom_site_label
 _atom_site_symmetry_multiplicity
 _atom_site_fract_x
 _atom_site_fract_y
 _atom_site_fract_z
 _atom_site_occupancy
  Co  Co0  1  0.037710  0.720242  0.136533  1
  Co  Co1  1  0.964991  0.287845  0.868483  1
  Co  Co2  1  0.464991  0.712155  0.368483  1
  Co  Co3  1  0.537710  0.279758  0.636533  1
  P  P4  1  0.144830  0.496121  0.606743  1
  P  P5  1  0.100144  0.175193  0.418215  1
  P  P6  1  0.399885  0.176076  0.084978  1
  P  P7  1  0.644830  0.503879  0.106743  1
  P  P8  1  0.899885  0.823924  0.584978  1
  P  P9  1  0.859048  0.505680  0.384555  1
  P  P10  1  0.359048  0.494320  0.884555  1
  P  P11  1  0.750093  0.070171  0.752465  1
  P  P12  1  0.600144  0.824807  0.918215  1
  P  P13  1  0.250093  0.929829  0.252465  1
  O  O14  1  0.069897  0.476789  0.809767  1
  O  O15  1  0.671236  0.668230  0.978493  1
  O  O16  1  0.328753  0.329194  0.009133  1
  O  O17  1  0.936262  0.529389  0.186496  1
  O  O18  1  0.623315  0.383615  0.901542  1
  O  O19  1  0.330475  0.841944  0.418598  1
  O  O20  1  0.034766  0.144848  0.635500  1
  O  O21  1  0.309482  0.047950  0.069183  1
  O  O22  1  0.193408  0.049541  0.435532  1
  O  O23  1  0.171236  0.331770  0.478493  1
  O  O24  1  0.693408  0.950459  0.935532  1
  O  O25  1  0.470183  0.143656  0.877491  1
  O  O26  1  0.950601  0.803127  0.849263  1
  O  O27  1  0.753462  0.450825  0.238488  1
  O  O28  1  0.123315  0.616385  0.401542  1
  O  O29  1  0.569897  0.523211  0.309767  1
  O  O30  1  0.167943  0.847654  0.080739  1
  O  O31  1  0.379877  0.613142  0.088745  1
  O  O32  1  0.534766  0.855152  0.135500  1
  O  O33  1  0.830476  0.158056  0.918598  1
  O  O34  1  0.450601  0.196873  0.349263  1
  O  O35  1  0.253462  0.549175  0.738488  1
  O  O36  1  0.879877  0.386858  0.588745  1
  O  O37  1  0.970183  0.856344  0.377491  1
  O  O38  1  0.809482  0.952050  0.569183  1
  O  O39  1  0.436262  0.470611  0.686496  1
  O  O40  1  0.048015  0.190248  0.156639  1
  O  O41  1  0.667943  0.152346  0.580739  1
  O  O42  1  0.828753  0.670806  0.509133  1
  O  O43  1  0.548015  0.809752  0.656639  1
