# generated using pymatgen
data_CeEuZn2
_symmetry_space_group_name_H-M   'P 1'
_cell_length_a   5.21459886
_cell_length_b   5.21493311
_cell_length_c   5.21518203
_cell_angle_alpha   59.97979951
_cell_angle_beta   59.98814100
_cell_angle_gamma   59.99082492
_symmetry_Int_Tables_number   1
_chemical_formula_structural   CeEuZn2
_chemical_formula_sum   'Ce1 Eu1 Zn2'
_cell_volume   100.25100632
_cell_formula_units_Z   1
loop_
 _symmetry_equiv_pos_site_id
 _symmetry_equiv_pos_as_xyz
  1  'x, y, z'
loop_
 _atom_site_type_symbol
 _atom_site_label
 _atom_site_symmetry_multiplicity
 _atom_site_fract_x
 _atom_site_fract_y
 _atom_site_fract_z
 _atom_site_occupancy
  Ce  Ce0  1  0.250002  0.250002  0.250000  1
  Eu  Eu1  1  0.749998  0.749997  0.750000  1
  Zn  Zn2  1  0.999994  0.999993  -0.000006  1
  Zn  Zn3  1  0.500007  0.500008  0.500007  1
