# generated using pymatgen
data_Th6Mn23H44
_symmetry_space_group_name_H-M   'P 1'
_cell_length_a   9.48078895
_cell_length_b   9.48078895
_cell_length_c   9.48078895
_cell_angle_alpha   60.00000000
_cell_angle_beta   60.00000000
_cell_angle_gamma   60.00000000
_symmetry_Int_Tables_number   1
_chemical_formula_structural   Th6Mn23H44
_chemical_formula_sum   'Th6 Mn23 H44'
_cell_volume   602.58517035
_cell_formula_units_Z   1
loop_
 _symmetry_equiv_pos_site_id
 _symmetry_equiv_pos_as_xyz
  1  'x, y, z'
loop_
 _atom_site_type_symbol
 _atom_site_label
 _atom_site_symmetry_multiplicity
 _atom_site_fract_x
 _atom_site_fract_y
 _atom_site_fract_z
 _atom_site_occupancy
  Th  Th0  1  0.706386  0.706386  0.293614  1
  Th  Th1  1  0.293614  0.293614  0.706386  1
  Th  Th2  1  0.706386  0.293614  0.706386  1
  Th  Th3  1  0.293614  0.706386  0.293614  1
  Th  Th4  1  0.293614  0.706386  0.706386  1
  Th  Th5  1  0.706386  0.293614  0.293614  1
  Mn  Mn6  1  0.872229  0.872229  0.872229  1
  Mn  Mn7  1  0.127771  0.127771  0.127771  1
  Mn  Mn8  1  0.383312  0.872229  0.872229  1
  Mn  Mn9  1  0.872229  0.383312  0.872229  1
  Mn  Mn10  1  0.616688  0.127771  0.127771  1
  Mn  Mn11  1  0.127771  0.616688  0.127771  1
  Mn  Mn12  1  0.872229  0.872229  0.383312  1
  Mn  Mn13  1  0.127771  0.127771  0.616688  1
  Mn  Mn14  1  0.685224  0.685224  0.685224  1
  Mn  Mn15  1  0.314776  0.314776  0.314776  1
  Mn  Mn16  1  0.944328  0.685224  0.685224  1
  Mn  Mn17  1  0.685224  0.944328  0.685224  1
  Mn  Mn18  1  0.055672  0.314776  0.314776  1
  Mn  Mn19  1  0.314776  0.055672  0.314776  1
  Mn  Mn20  1  0.685224  0.685224  0.944328  1
  Mn  Mn21  1  0.314776  0.314776  0.055672  1
  Mn  Mn22  1  -0.000000  -0.000000  -0.000000  1
  Mn  Mn23  1  -0.000000  -0.000000  0.500000  1
  Mn  Mn24  1  0.500000  0.500000  -0.000000  1
  Mn  Mn25  1  -0.000000  0.500000  -0.000000  1
  Mn  Mn26  1  0.500000  -0.000000  0.500000  1
  Mn  Mn27  1  0.500000  -0.000000  -0.000000  1
  Mn  Mn28  1  -0.000000  0.500000  0.500000  1
  H  H29  1  -0.000000  0.000000  0.691878  1
  H  H30  1  0.000000  -0.000000  0.308122  1
  H  H31  1  0.308122  0.691878  -0.000000  1
  H  H32  1  0.691878  0.308122  0.000000  1
  H  H33  1  0.000000  0.691878  -0.000000  1
  H  H34  1  0.691878  0.000000  0.308122  1
  H  H35  1  -0.000000  0.308122  0.000000  1
  H  H36  1  0.308122  0.000000  0.691878  1
  H  H37  1  0.691878  -0.000000  0.000000  1
  H  H38  1  0.308122  0.000000  -0.000000  1
  H  H39  1  -0.000000  0.691878  0.308122  1
  H  H40  1  0.000000  0.308122  0.691878  1
  H  H41  1  0.094563  0.561514  0.561514  1
  H  H42  1  0.905437  0.438486  0.438486  1
  H  H43  1  0.782408  0.561514  0.561514  1
  H  H44  1  0.561514  0.782408  0.094563  1
  H  H45  1  0.561514  0.561514  0.094563  1
  H  H46  1  0.217592  0.438486  0.438486  1
  H  H47  1  0.438486  0.217592  0.905437  1
  H  H48  1  0.438486  0.438486  0.905437  1
  H  H49  1  0.561514  0.094563  0.782408  1
  H  H50  1  0.561514  0.561514  0.782408  1
  H  H51  1  0.438486  0.905437  0.217592  1
  H  H52  1  0.438486  0.438486  0.217592  1
  H  H53  1  0.782408  0.094563  0.561514  1
  H  H54  1  0.217592  0.905437  0.438486  1
  H  H55  1  0.094563  0.782408  0.561514  1
  H  H56  1  0.905437  0.217592  0.438486  1
  H  H57  1  0.561514  0.094563  0.561514  1
  H  H58  1  0.217592  0.438486  0.905437  1
  H  H59  1  0.438486  0.905437  0.438486  1
  H  H60  1  0.782408  0.561514  0.094563  1
  H  H61  1  0.094563  0.561514  0.782408  1
  H  H62  1  0.905437  0.438486  0.217592  1
  H  H63  1  0.438486  0.217592  0.438486  1
  H  H64  1  0.561514  0.782408  0.561514  1
  H  H65  1  0.564655  0.564655  0.564655  1
  H  H66  1  0.435345  0.435345  0.435345  1
  H  H67  1  0.306034  0.564655  0.564655  1
  H  H68  1  0.564655  0.306034  0.564655  1
  H  H69  1  0.693966  0.435345  0.435345  1
  H  H70  1  0.435345  0.693966  0.435345  1
  H  H71  1  0.564655  0.564655  0.306034  1
  H  H72  1  0.435345  0.435345  0.693966  1
