# generated using pymatgen
data_K3AuCl6
_symmetry_space_group_name_H-M   'P 1'
_cell_length_a   7.73406772
_cell_length_b   7.73406806
_cell_length_c   7.73406804
_cell_angle_alpha   59.99999893
_cell_angle_beta   59.99999839
_cell_angle_gamma   59.99999847
_symmetry_Int_Tables_number   1
_chemical_formula_structural   K3AuCl6
_chemical_formula_sum   'K3 Au1 Cl6'
_cell_volume   327.12138542
_cell_formula_units_Z   1
loop_
 _symmetry_equiv_pos_site_id
 _symmetry_equiv_pos_as_xyz
  1  'x, y, z'
loop_
 _atom_site_type_symbol
 _atom_site_label
 _atom_site_symmetry_multiplicity
 _atom_site_fract_x
 _atom_site_fract_y
 _atom_site_fract_z
 _atom_site_occupancy
  K  K0  1  0.250000  0.250000  0.250000  1
  K  K1  1  0.750000  0.750000  0.750000  1
  K  K2  1  0.500000  0.500000  0.500000  1
  Au  Au3  1  -0.000000  -0.000000  0.000000  1
  Cl  Cl4  1  0.229515  0.770485  0.229515  1
  Cl  Cl5  1  0.770485  0.770485  0.229515  1
  Cl  Cl6  1  0.770485  0.229515  0.770485  1
  Cl  Cl7  1  0.770485  0.229515  0.229515  1
  Cl  Cl8  1  0.229515  0.770485  0.770485  1
  Cl  Cl9  1  0.229515  0.229515  0.770485  1
