# generated using pymatgen
data_MgTi7H16
_symmetry_space_group_name_H-M   'P 1'
_cell_length_a   6.28442135
_cell_length_b   6.28442135
_cell_length_c   6.28442135
_cell_angle_alpha   60.00000000
_cell_angle_beta   60.00000000
_cell_angle_gamma   60.00000000
_symmetry_Int_Tables_number   1
_chemical_formula_structural   MgTi7H16
_chemical_formula_sum   'Mg1 Ti7 H16'
_cell_volume   175.50152218
_cell_formula_units_Z   1
loop_
 _symmetry_equiv_pos_site_id
 _symmetry_equiv_pos_as_xyz
  1  'x, y, z'
loop_
 _atom_site_type_symbol
 _atom_site_label
 _atom_site_symmetry_multiplicity
 _atom_site_fract_x
 _atom_site_fract_y
 _atom_site_fract_z
 _atom_site_occupancy
  Mg  Mg0  1  0.000000  0.000000  0.000000  1
  Ti  Ti1  1  0.500000  0.500000  0.500000  1
  Ti  Ti2  1  0.500000  0.000000  0.000000  1
  Ti  Ti3  1  0.500000  0.000000  0.500000  1
  Ti  Ti4  1  0.500000  0.500000  0.000000  1
  Ti  Ti5  1  0.000000  0.500000  0.500000  1
  Ti  Ti6  1  0.000000  0.500000  0.000000  1
  Ti  Ti7  1  0.000000  0.000000  0.500000  1
  H  H8  1  0.615888  0.128037  0.128037  1
  H  H9  1  0.128037  0.615888  0.128037  1
  H  H10  1  0.128037  0.128037  0.615888  1
  H  H11  1  0.128037  0.128037  0.128037  1
  H  H12  1  0.384112  0.871963  0.871963  1
  H  H13  1  0.871963  0.384112  0.871963  1
  H  H14  1  0.871963  0.871963  0.384112  1
  H  H15  1  0.871963  0.871963  0.871963  1
  H  H16  1  0.873517  0.375494  0.375494  1
  H  H17  1  0.375494  0.873517  0.375494  1
  H  H18  1  0.375494  0.375494  0.873517  1
  H  H19  1  0.375494  0.375494  0.375494  1
  H  H20  1  0.126483  0.624506  0.624506  1
  H  H21  1  0.624506  0.126483  0.624506  1
  H  H22  1  0.624506  0.624506  0.126483  1
  H  H23  1  0.624506  0.624506  0.624506  1
