# generated using pymatgen
data_Rb3GdCl6
_symmetry_space_group_name_H-M   'P 1'
_cell_length_a   8.18122297
_cell_length_b   8.18122338
_cell_length_c   8.18122336
_cell_angle_alpha   59.99999872
_cell_angle_beta   59.99999810
_cell_angle_gamma   59.99999820
_symmetry_Int_Tables_number   1
_chemical_formula_structural   Rb3GdCl6
_chemical_formula_sum   'Rb3 Gd1 Cl6'
_cell_volume   387.20389331
_cell_formula_units_Z   1
loop_
 _symmetry_equiv_pos_site_id
 _symmetry_equiv_pos_as_xyz
  1  'x, y, z'
loop_
 _atom_site_type_symbol
 _atom_site_label
 _atom_site_symmetry_multiplicity
 _atom_site_fract_x
 _atom_site_fract_y
 _atom_site_fract_z
 _atom_site_occupancy
  Rb  Rb0  1  0.250000  0.250000  0.250000  1
  Rb  Rb1  1  0.750000  0.750000  0.750000  1
  Rb  Rb2  1  0.500000  0.500000  0.500000  1
  Gd  Gd3  1  0.000000  -0.000000  -0.000000  1
  Cl  Cl4  1  0.230474  0.769526  0.230474  1
  Cl  Cl5  1  0.769526  0.769526  0.230474  1
  Cl  Cl6  1  0.769526  0.230474  0.769526  1
  Cl  Cl7  1  0.769526  0.230474  0.230474  1
  Cl  Cl8  1  0.230474  0.769526  0.769526  1
  Cl  Cl9  1  0.230474  0.230474  0.769526  1
