# generated using pymatgen
data_Te3W2S
_symmetry_space_group_name_H-M   'P 1'
_cell_length_a   3.45583370
_cell_length_b   3.45582824
_cell_length_c   39.22600516
_cell_angle_alpha   90.00619992
_cell_angle_beta   90.00000000
_cell_angle_gamma   120.00005222
_symmetry_Int_Tables_number   1
_chemical_formula_structural   Te3W2S
_chemical_formula_sum   'Te6 W4 S2'
_cell_volume   405.70416492
_cell_formula_units_Z   2
loop_
 _symmetry_equiv_pos_site_id
 _symmetry_equiv_pos_as_xyz
  1  'x, y, z'
loop_
 _atom_site_type_symbol
 _atom_site_label
 _atom_site_symmetry_multiplicity
 _atom_site_fract_x
 _atom_site_fract_y
 _atom_site_fract_z
 _atom_site_occupancy
  Te  Te0  1  0.333412  0.666825  0.705413  1
  Te  Te1  1  0.666610  0.333219  0.046629  1
  Te  Te2  1  0.666585  0.333168  0.421854  1
  Te  Te3  1  0.666693  0.333384  0.141399  1
  Te  Te4  1  0.666630  0.333258  0.516625  1
  Te  Te5  1  0.333328  0.666656  0.610634  1
  W  W6  1  0.333316  0.666632  0.093987  1
  W  W7  1  0.333271  0.666543  0.469227  1
  W  W8  1  0.666707  0.333414  0.281649  1
  W  W9  1  0.666702  0.333403  0.658057  1
  S  S10  1  0.333407  0.666814  0.319592  1
  S  S11  1  0.333340  0.666682  0.243681  1
