# generated using pymatgen
data_Tm3Si11Pt23
_symmetry_space_group_name_H-M   'P 1'
_cell_length_a   12.02242654
_cell_length_b   12.02242654
_cell_length_c   12.02242654
_cell_angle_alpha   60.00000000
_cell_angle_beta   60.00000000
_cell_angle_gamma   60.00000000
_symmetry_Int_Tables_number   1
_chemical_formula_structural   Tm3Si11Pt23
_chemical_formula_sum   'Tm6 Si22 Pt46'
_cell_volume   1228.74396576
_cell_formula_units_Z   2
loop_
 _symmetry_equiv_pos_site_id
 _symmetry_equiv_pos_as_xyz
  1  'x, y, z'
loop_
 _atom_site_type_symbol
 _atom_site_label
 _atom_site_symmetry_multiplicity
 _atom_site_fract_x
 _atom_site_fract_y
 _atom_site_fract_z
 _atom_site_occupancy
  Tm  Tm0  1  0.500000  0.000000  -0.000000  1
  Tm  Tm1  1  0.500000  0.000000  0.500000  1
  Tm  Tm2  1  0.500000  0.500000  -0.000000  1
  Tm  Tm3  1  0.000000  0.500000  0.500000  1
  Tm  Tm4  1  0.000000  0.500000  -0.000000  1
  Tm  Tm5  1  0.000000  0.000000  0.500000  1
  Si  Si6  1  0.827713  0.172287  0.172287  1
  Si  Si7  1  0.827713  0.172287  0.827713  1
  Si  Si8  1  0.827713  0.827713  0.172287  1
  Si  Si9  1  0.172287  0.827713  0.827713  1
  Si  Si10  1  0.172287  0.827713  0.172287  1
  Si  Si11  1  0.172287  0.172287  0.827713  1
  Si  Si12  1  0.504492  0.165169  0.165169  1
  Si  Si13  1  0.165169  0.504492  0.165169  1
  Si  Si14  1  0.165169  0.165169  0.504492  1
  Si  Si15  1  0.165169  0.165169  0.165169  1
  Si  Si16  1  0.495508  0.834831  0.834831  1
  Si  Si17  1  0.834831  0.495508  0.834831  1
  Si  Si18  1  0.834831  0.834831  0.495508  1
  Si  Si19  1  0.834831  0.834831  0.834831  1
  Si  Si20  1  0.819621  0.393460  0.393460  1
  Si  Si21  1  0.393460  0.819621  0.393460  1
  Si  Si22  1  0.393460  0.393460  0.819621  1
  Si  Si23  1  0.393460  0.393460  0.393460  1
  Si  Si24  1  0.180379  0.606540  0.606540  1
  Si  Si25  1  0.606540  0.180379  0.606540  1
  Si  Si26  1  0.606540  0.606540  0.180379  1
  Si  Si27  1  0.606540  0.606540  0.606540  1
  Pt  Pt28  1  0.751872  0.082709  0.082709  1
  Pt  Pt29  1  0.082709  0.751872  0.082709  1
  Pt  Pt30  1  0.082709  0.082709  0.751872  1
  Pt  Pt31  1  0.082709  0.082709  0.082709  1
  Pt  Pt32  1  0.248128  0.917291  0.917291  1
  Pt  Pt33  1  0.917291  0.248128  0.917291  1
  Pt  Pt34  1  0.917291  0.917291  0.248128  1
  Pt  Pt35  1  0.917291  0.917291  0.917291  1
  Pt  Pt36  1  0.075817  0.308061  0.308061  1
  Pt  Pt37  1  0.308061  0.075817  0.308061  1
  Pt  Pt38  1  0.308061  0.308061  0.075817  1
  Pt  Pt39  1  0.308061  0.308061  0.308061  1
  Pt  Pt40  1  0.924183  0.691939  0.691939  1
  Pt  Pt41  1  0.691939  0.924183  0.691939  1
  Pt  Pt42  1  0.691939  0.691939  0.924183  1
  Pt  Pt43  1  0.691939  0.691939  0.691939  1
  Pt  Pt44  1  0.625027  0.374973  0.374973  1
  Pt  Pt45  1  0.625027  0.374973  0.625027  1
  Pt  Pt46  1  0.625027  0.625027  0.374973  1
  Pt  Pt47  1  0.374973  0.625027  0.625027  1
  Pt  Pt48  1  0.374973  0.625027  0.374973  1
  Pt  Pt49  1  0.374973  0.374973  0.625027  1
  Pt  Pt50  1  0.577846  0.917849  0.252152  1
  Pt  Pt51  1  0.577846  0.252152  0.252152  1
  Pt  Pt52  1  0.577846  0.252152  0.917849  1
  Pt  Pt53  1  0.917849  0.577846  0.252152  1
  Pt  Pt54  1  0.252152  0.577846  0.917849  1
  Pt  Pt55  1  0.252152  0.577846  0.252152  1
  Pt  Pt56  1  0.252152  0.252152  0.577846  1
  Pt  Pt57  1  0.252152  0.917849  0.577846  1
  Pt  Pt58  1  0.917849  0.252152  0.577846  1
  Pt  Pt59  1  0.252152  0.252152  0.917849  1
  Pt  Pt60  1  0.917849  0.252152  0.252152  1
  Pt  Pt61  1  0.252152  0.917849  0.252152  1
  Pt  Pt62  1  0.422154  0.082151  0.747848  1
  Pt  Pt63  1  0.422154  0.747848  0.747848  1
  Pt  Pt64  1  0.422154  0.747848  0.082151  1
  Pt  Pt65  1  0.082151  0.422154  0.747848  1
  Pt  Pt66  1  0.747848  0.422154  0.082151  1
  Pt  Pt67  1  0.747848  0.422154  0.747848  1
  Pt  Pt68  1  0.747848  0.747848  0.422154  1
  Pt  Pt69  1  0.747848  0.082151  0.422154  1
  Pt  Pt70  1  0.082151  0.747848  0.422154  1
  Pt  Pt71  1  0.747848  0.747848  0.082151  1
  Pt  Pt72  1  0.082151  0.747848  0.747848  1
  Pt  Pt73  1  0.747848  0.082151  0.747848  1
