# generated using pymatgen
data_Mn8Nb3Si
_symmetry_space_group_name_H-M   'P 1'
_cell_length_a   4.76371303
_cell_length_b   4.76371303
_cell_length_c   7.81869092
_cell_angle_alpha   90.01531788
_cell_angle_beta   89.98468212
_cell_angle_gamma   119.97630881
_symmetry_Int_Tables_number   1
_chemical_formula_structural   Mn8Nb3Si
_chemical_formula_sum   'Mn8 Nb3 Si1'
_cell_volume   153.69490425
_cell_formula_units_Z   1
loop_
 _symmetry_equiv_pos_site_id
 _symmetry_equiv_pos_as_xyz
  1  'x, y, z'
loop_
 _atom_site_type_symbol
 _atom_site_label
 _atom_site_symmetry_multiplicity
 _atom_site_fract_x
 _atom_site_fract_y
 _atom_site_fract_z
 _atom_site_occupancy
  Mn  Mn0  1  0.999954  0.000046  0.502536  1
  Mn  Mn1  1  0.999934  0.000066  0.009595  1
  Mn  Mn2  1  0.171024  0.341954  0.746736  1
  Mn  Mn3  1  0.170903  0.829097  0.746938  1
  Mn  Mn4  1  0.658046  0.828976  0.746736  1
  Mn  Mn5  1  0.826415  0.652789  0.252579  1
  Mn  Mn6  1  0.826473  0.173527  0.252464  1
  Mn  Mn7  1  0.347211  0.173585  0.252579  1
  Nb  Nb8  1  0.333329  0.666671  0.443309  1
  Nb  Nb9  1  0.333354  0.666646  0.065884  1
  Nb  Nb10  1  0.666651  0.333349  0.918794  1
  Si  Si11  1  0.666706  0.333294  0.561850  1
