# generated using pymatgen
data_Ca(SbO2)2
_symmetry_space_group_name_H-M   'P 1'
_cell_length_a   6.86413965
_cell_length_b   6.86415292
_cell_length_c   21.04466225
_cell_angle_alpha   60.69396371
_cell_angle_beta   60.69274719
_cell_angle_gamma   59.99494091
_symmetry_Int_Tables_number   1
_chemical_formula_structural   Ca(SbO2)2
_chemical_formula_sum   'Ca6 Sb12 O24'
_cell_volume   708.36302691
_cell_formula_units_Z   6
loop_
 _symmetry_equiv_pos_site_id
 _symmetry_equiv_pos_as_xyz
  1  'x, y, z'
loop_
 _atom_site_type_symbol
 _atom_site_label
 _atom_site_symmetry_multiplicity
 _atom_site_fract_x
 _atom_site_fract_y
 _atom_site_fract_z
 _atom_site_occupancy
  Ca  Ca0  1  0.127040  0.127040  0.039632  1
  Ca  Ca1  1  0.129588  0.129589  0.370428  1
  Ca  Ca2  1  0.505329  0.505329  0.327975  1
  Ca  Ca3  1  0.121152  0.121168  0.712191  1
  Ca  Ca4  1  0.504237  0.504242  0.995732  1
  Ca  Ca5  1  0.873776  0.873757  0.626234  1
  Sb  Sb6  1  0.502302  0.502308  0.161384  1
  Sb  Sb7  1  0.501932  0.011243  0.161563  1
  Sb  Sb8  1  0.501845  0.501887  0.493880  1
  Sb  Sb9  1  0.011235  0.501936  0.161579  1
  Sb  Sb10  1  0.501372  0.013958  0.494254  1
  Sb  Sb11  1  0.511413  0.511411  0.655180  1
  Sb  Sb12  1  0.876835  0.876842  0.289849  1
  Sb  Sb13  1  0.501324  0.501372  0.830435  1
  Sb  Sb14  1  0.013936  0.501332  0.494296  1
  Sb  Sb15  1  0.501057  0.006319  0.830550  1
  Sb  Sb16  1  0.006314  0.501026  0.830563  1
  Sb  Sb17  1  0.880597  0.880602  0.952724  1
  O  O18  1  0.257384  0.257344  0.094505  1
  O  O19  1  0.268766  0.268802  0.231006  1
  O  O20  1  0.257513  0.701796  0.094448  1
  O  O21  1  0.701793  0.257514  0.094446  1
  O  O22  1  0.255049  0.254959  0.425851  1
  O  O23  1  0.254364  0.745563  0.251620  1
  O  O24  1  0.268043  0.268177  0.565019  1
  O  O25  1  0.745569  0.254374  0.251615  1
  O  O26  1  0.756798  0.756854  0.076236  1
  O  O27  1  0.255603  0.712352  0.425766  1
  O  O28  1  0.712360  0.255572  0.425748  1
  O  O29  1  0.745429  0.745361  0.251660  1
  O  O30  1  0.243564  0.243553  0.764726  1
  O  O31  1  0.279024  0.729642  0.587679  1
  O  O32  1  0.729706  0.278999  0.587703  1
  O  O33  1  0.262590  0.262630  0.903874  1
  O  O34  1  0.751720  0.751874  0.414640  1
  O  O35  1  0.243668  0.718727  0.764762  1
  O  O36  1  0.718713  0.243657  0.764745  1
  O  O37  1  0.728963  0.728812  0.587743  1
  O  O38  1  0.260693  0.742364  0.918283  1
  O  O39  1  0.742411  0.260678  0.918288  1
  O  O40  1  0.746764  0.746800  0.752957  1
  O  O41  1  0.742228  0.742231  0.918233  1
