# generated using pymatgen
data_Mg(AgO2)2
_symmetry_space_group_name_H-M   'P 1'
_cell_length_a   6.41987380
_cell_length_b   6.41962706
_cell_length_c   19.02845605
_cell_angle_alpha   59.65287759
_cell_angle_beta   59.67108549
_cell_angle_gamma   59.87400769
_symmetry_Int_Tables_number   1
_chemical_formula_structural   Mg(AgO2)2
_chemical_formula_sum   'Mg6 Ag12 O24'
_cell_volume   551.15783550
_cell_formula_units_Z   6
loop_
 _symmetry_equiv_pos_site_id
 _symmetry_equiv_pos_as_xyz
  1  'x, y, z'
loop_
 _atom_site_type_symbol
 _atom_site_label
 _atom_site_symmetry_multiplicity
 _atom_site_fract_x
 _atom_site_fract_y
 _atom_site_fract_z
 _atom_site_occupancy
  Mg  Mg0  1  0.118978  0.119052  0.047805  1
  Mg  Mg1  1  0.124472  0.124525  0.375453  1
  Mg  Mg2  1  0.497467  0.497403  0.002427  1
  Mg  Mg3  1  0.119111  0.119283  0.714149  1
  Mg  Mg4  1  0.877403  0.877446  0.289168  1
  Mg  Mg5  1  0.877939  0.877803  0.622216  1
  Ag  Ag6  1  0.006736  0.498432  0.165503  1
  Ag  Ag7  1  0.498670  0.498673  0.165222  1
  Ag  Ag8  1  0.001044  0.499681  0.499896  1
  Ag  Ag9  1  0.498452  0.006701  0.165502  1
  Ag  Ag10  1  0.500607  0.500647  0.332578  1
  Ag  Ag11  1  0.499664  0.499640  0.499883  1
  Ag  Ag12  1  0.996113  0.499956  0.834580  1
  Ag  Ag13  1  0.499706  0.001068  0.499890  1
  Ag  Ag14  1  0.499962  0.996078  0.834577  1
  Ag  Ag15  1  0.500759  0.500761  0.666135  1
  Ag  Ag16  1  0.499968  0.499971  0.834588  1
  Ag  Ag17  1  0.876680  0.876598  0.956503  1
  O  O18  1  0.264650  0.264495  0.080791  1
  O  O19  1  0.255152  0.255237  0.244488  1
  O  O20  1  0.265185  0.728606  0.080798  1
  O  O21  1  0.728676  0.265129  0.080773  1
  O  O22  1  0.266927  0.748910  0.244652  1
  O  O23  1  0.253803  0.253885  0.418031  1
  O  O24  1  0.748838  0.267101  0.244607  1
  O  O25  1  0.738385  0.738272  0.095397  1
  O  O26  1  0.253974  0.738005  0.418015  1
  O  O27  1  0.250711  0.250702  0.582666  1
  O  O28  1  0.749436  0.749566  0.244673  1
  O  O29  1  0.738036  0.253996  0.418015  1
  O  O30  1  0.263419  0.745806  0.581640  1
  O  O31  1  0.250706  0.250792  0.758892  1
  O  O32  1  0.745822  0.263368  0.581670  1
  O  O33  1  0.746969  0.746997  0.419589  1
  O  O34  1  0.249463  0.250113  0.916743  1
  O  O35  1  0.251254  0.722432  0.758634  1
  O  O36  1  0.746147  0.746080  0.581593  1
  O  O37  1  0.722352  0.251362  0.758665  1
  O  O38  1  0.298397  0.733818  0.911136  1
  O  O39  1  0.750193  0.749558  0.750094  1
  O  O40  1  0.733954  0.298306  0.911158  1
  O  O41  1  0.733823  0.733747  0.911205  1
