# generated using pymatgen
data_Zr6Ga16Os7
_symmetry_space_group_name_H-M   'P 1'
_cell_length_a   8.81066944
_cell_length_b   8.81066944
_cell_length_c   8.81066944
_cell_angle_alpha   60.00000000
_cell_angle_beta   60.00000000
_cell_angle_gamma   60.00000000
_symmetry_Int_Tables_number   1
_chemical_formula_structural   Zr6Ga16Os7
_chemical_formula_sum   'Zr6 Ga16 Os7'
_cell_volume   483.62832158
_cell_formula_units_Z   1
loop_
 _symmetry_equiv_pos_site_id
 _symmetry_equiv_pos_as_xyz
  1  'x, y, z'
loop_
 _atom_site_type_symbol
 _atom_site_label
 _atom_site_symmetry_multiplicity
 _atom_site_fract_x
 _atom_site_fract_y
 _atom_site_fract_z
 _atom_site_occupancy
  Zr  Zr0  1  0.718918  0.281082  0.281082  1
  Zr  Zr1  1  0.718918  0.281082  0.718918  1
  Zr  Zr2  1  0.718918  0.718918  0.281082  1
  Zr  Zr3  1  0.281082  0.718918  0.718918  1
  Zr  Zr4  1  0.281082  0.718918  0.281082  1
  Zr  Zr5  1  0.281082  0.281082  0.718918  1
  Ga  Ga6  1  0.628690  0.123770  0.123770  1
  Ga  Ga7  1  0.123770  0.628690  0.123770  1
  Ga  Ga8  1  0.123770  0.123770  0.628690  1
  Ga  Ga9  1  0.123770  0.123770  0.123770  1
  Ga  Ga10  1  0.371310  0.876230  0.876230  1
  Ga  Ga11  1  0.876230  0.371310  0.876230  1
  Ga  Ga12  1  0.876230  0.876230  0.371310  1
  Ga  Ga13  1  0.876230  0.876230  0.876230  1
  Ga  Ga14  1  0.963233  0.345589  0.345589  1
  Ga  Ga15  1  0.345589  0.963233  0.345589  1
  Ga  Ga16  1  0.345589  0.345589  0.963233  1
  Ga  Ga17  1  0.345589  0.345589  0.345589  1
  Ga  Ga18  1  0.036767  0.654411  0.654411  1
  Ga  Ga19  1  0.654411  0.036767  0.654411  1
  Ga  Ga20  1  0.654411  0.654411  0.036767  1
  Ga  Ga21  1  0.654411  0.654411  0.654411  1
  Os  Os22  1  -0.000000  0.000000  0.000000  1
  Os  Os23  1  0.500000  0.000000  0.000000  1
  Os  Os24  1  0.500000  0.000000  0.500000  1
  Os  Os25  1  0.500000  0.500000  0.000000  1
  Os  Os26  1  -0.000000  0.500000  0.500000  1
  Os  Os27  1  -0.000000  0.500000  0.000000  1
  Os  Os28  1  -0.000000  0.000000  0.500000  1
