# generated using pymatgen
data_Nd6Mn16Ni7
_symmetry_space_group_name_H-M   'P 1'
_cell_length_a   8.75796836
_cell_length_b   8.75796836
_cell_length_c   8.75796836
_cell_angle_alpha   60.00000000
_cell_angle_beta   60.00000000
_cell_angle_gamma   60.00000000
_symmetry_Int_Tables_number   1
_chemical_formula_structural   Nd6Mn16Ni7
_chemical_formula_sum   'Nd6 Mn16 Ni7'
_cell_volume   475.00165028
_cell_formula_units_Z   1
loop_
 _symmetry_equiv_pos_site_id
 _symmetry_equiv_pos_as_xyz
  1  'x, y, z'
loop_
 _atom_site_type_symbol
 _atom_site_label
 _atom_site_symmetry_multiplicity
 _atom_site_fract_x
 _atom_site_fract_y
 _atom_site_fract_z
 _atom_site_occupancy
  Nd  Nd0  1  0.704816  0.295184  0.295184  1
  Nd  Nd1  1  0.704816  0.295184  0.704816  1
  Nd  Nd2  1  0.704816  0.704816  0.295184  1
  Nd  Nd3  1  0.295184  0.704816  0.704816  1
  Nd  Nd4  1  0.295184  0.704816  0.295184  1
  Nd  Nd5  1  0.295184  0.295184  0.704816  1
  Mn  Mn6  1  0.639199  0.120267  0.120267  1
  Mn  Mn7  1  0.120267  0.639199  0.120267  1
  Mn  Mn8  1  0.120267  0.120267  0.639199  1
  Mn  Mn9  1  0.120267  0.120267  0.120267  1
  Mn  Mn10  1  0.360801  0.879733  0.879733  1
  Mn  Mn11  1  0.879733  0.360801  0.879733  1
  Mn  Mn12  1  0.879733  0.879733  0.360801  1
  Mn  Mn13  1  0.879733  0.879733  0.879733  1
  Mn  Mn14  1  0.032608  0.322464  0.322464  1
  Mn  Mn15  1  0.322464  0.032608  0.322464  1
  Mn  Mn16  1  0.322464  0.322464  0.032608  1
  Mn  Mn17  1  0.322464  0.322464  0.322464  1
  Mn  Mn18  1  0.967392  0.677536  0.677536  1
  Mn  Mn19  1  0.677536  0.967392  0.677536  1
  Mn  Mn20  1  0.677536  0.677536  0.967392  1
  Mn  Mn21  1  0.677536  0.677536  0.677536  1
  Ni  Ni22  1  0.000000  -0.000000  0.000000  1
  Ni  Ni23  1  0.500000  0.000000  0.000000  1
  Ni  Ni24  1  0.500000  0.000000  0.500000  1
  Ni  Ni25  1  0.500000  0.500000  0.000000  1
  Ni  Ni26  1  -0.000000  0.500000  0.500000  1
  Ni  Ni27  1  0.000000  0.500000  0.000000  1
  Ni  Ni28  1  0.000000  -0.000000  0.500000  1
