# generated using pymatgen
data_TeW2S3
_symmetry_space_group_name_H-M   'P 1'
_cell_length_a   3.27417252
_cell_length_b   3.27408420
_cell_length_c   42.00748525
_cell_angle_alpha   89.98863139
_cell_angle_beta   90.00000000
_cell_angle_gamma   120.00089238
_symmetry_Int_Tables_number   1
_chemical_formula_structural   TeW2S3
_chemical_formula_sum   'Te2 W4 S6'
_cell_volume   389.98221477
_cell_formula_units_Z   2
loop_
 _symmetry_equiv_pos_site_id
 _symmetry_equiv_pos_as_xyz
  1  'x, y, z'
loop_
 _atom_site_type_symbol
 _atom_site_label
 _atom_site_symmetry_multiplicity
 _atom_site_fract_x
 _atom_site_fract_y
 _atom_site_fract_z
 _atom_site_occupancy
  Te  Te0  1  0.666850  0.333699  0.423555  1
  Te  Te1  1  0.666719  0.333436  0.515789  1
  W  W2  1  0.333178  0.666357  0.093720  1
  W  W3  1  0.333458  0.666916  0.469675  1
  W  W4  1  0.666786  0.333571  0.279486  1
  W  W5  1  0.666581  0.333162  0.660047  1
  S  S6  1  0.333387  0.666774  0.316233  1
  S  S7  1  0.333185  0.666371  0.696812  1
  S  S8  1  0.666578  0.333154  0.056958  1
  S  S9  1  0.666462  0.332923  0.130486  1
  S  S10  1  0.333501  0.667003  0.242713  1
  S  S11  1  0.333316  0.666632  0.623276  1
