# generated using pymatgen
data_Mo2P4O15
_symmetry_space_group_name_H-M   'P 1'
_cell_length_a   6.83281343
_cell_length_b   8.49609604
_cell_length_c   11.10808037
_cell_angle_alpha   106.05754286
_cell_angle_beta   90.00000000
_cell_angle_gamma   90.00000000
_symmetry_Int_Tables_number   1
_chemical_formula_structural   Mo2P4O15
_chemical_formula_sum   'Mo4 P8 O30'
_cell_volume   619.68975981
_cell_formula_units_Z   2
loop_
 _symmetry_equiv_pos_site_id
 _symmetry_equiv_pos_as_xyz
  1  'x, y, z'
loop_
 _atom_site_type_symbol
 _atom_site_label
 _atom_site_symmetry_multiplicity
 _atom_site_fract_x
 _atom_site_fract_y
 _atom_site_fract_z
 _atom_site_occupancy
  Mo  Mo0  1  0.749175  0.797132  0.348215  1
  Mo  Mo1  1  0.248182  0.202539  0.152613  1
  Mo  Mo2  1  0.251818  0.202539  0.652613  1
  Mo  Mo3  1  0.750825  0.797132  0.848215  1
  P  P4  1  0.059950  0.814599  0.100939  1
  P  P5  1  0.557723  0.183026  0.399140  1
  P  P6  1  0.942277  0.183026  0.899140  1
  P  P7  1  0.440050  0.814599  0.600939  1
  P  P8  1  0.387249  0.586114  0.126871  1
  P  P9  1  0.883477  0.418988  0.377435  1
  P  P10  1  0.616523  0.418988  0.877435  1
  P  P11  1  0.112751  0.586114  0.626871  1
  O  O12  1  0.671827  0.026613  0.340380  1
  O  O13  1  0.171113  0.972924  0.159961  1
  O  O14  1  0.328887  0.972924  0.659961  1
  O  O15  1  0.828173  0.026613  0.840380  1
  O  O16  1  0.527840  0.805175  0.473919  1
  O  O17  1  0.025790  0.193682  0.027881  1
  O  O18  1  0.474210  0.193682  0.527881  1
  O  O19  1  0.972160  0.805175  0.973919  1
  O  O20  1  0.932945  0.844611  0.454858  1
  O  O21  1  0.433332  0.155544  0.047220  1
  O  O22  1  0.066668  0.155544  0.547220  1
  O  O23  1  0.567055  0.844611  0.954858  1
  O  O24  1  0.219841  0.669188  0.066431  1
  O  O25  1  0.713021  0.330408  0.429818  1
  O  O26  1  0.786979  0.330408  0.929818  1
  O  O27  1  0.280159  0.669188  0.566431  1
  O  O28  1  0.793551  0.545256  0.321833  1
  O  O29  1  0.296393  0.454232  0.175694  1
  O  O30  1  0.203607  0.454232  0.675694  1
  O  O31  1  0.706449  0.545256  0.821833  1
  O  O32  1  0.915006  0.771780  0.190394  1
  O  O33  1  0.408872  0.222930  0.311038  1
  O  O34  1  0.091128  0.222930  0.811038  1
  O  O35  1  0.584994  0.771780  0.690394  1
  O  O36  1  0.506682  0.711698  0.218321  1
  O  O37  1  0.018760  0.298945  0.293898  1
  O  O38  1  0.481240  0.298945  0.793898  1
  O  O39  1  0.993318  0.711698  0.718321  1
  O  O40  1  0.517142  0.508616  0.007140  1
  O  O41  1  0.982858  0.508616  0.507140  1
