# generated using pymatgen
data_CuPS2
_symmetry_space_group_name_H-M   'P 1'
_cell_length_a   4.03738211
_cell_length_b   4.03664545
_cell_length_c   5.50043360
_cell_angle_alpha   90.00000000
_cell_angle_beta   90.02223809
_cell_angle_gamma   60.00603559
_symmetry_Int_Tables_number   1
_chemical_formula_structural   CuPS2
_chemical_formula_sum   'Cu1 P1 S2'
_cell_volume   77.63800800
_cell_formula_units_Z   1
loop_
 _symmetry_equiv_pos_site_id
 _symmetry_equiv_pos_as_xyz
  1  'x, y, z'
loop_
 _atom_site_type_symbol
 _atom_site_label
 _atom_site_symmetry_multiplicity
 _atom_site_fract_x
 _atom_site_fract_y
 _atom_site_fract_z
 _atom_site_occupancy
  Cu  Cu0  1  0.666640  0.666680  0.507606  1
  P  P1  1  0.333495  0.333252  0.007807  1
  S  S2  1  0.666479  0.666760  0.095382  1
  S  S3  1  0.333386  0.333307  0.627205  1
