# generated using pymatgen
data_Dy2Ga3Cu
_symmetry_space_group_name_H-M   'P 1'
_cell_length_a   4.37049542
_cell_length_b   4.37215468
_cell_length_c   7.19274890
_cell_angle_alpha   90.00000000
_cell_angle_beta   89.99619461
_cell_angle_gamma   59.98744787
_symmetry_Int_Tables_number   1
_chemical_formula_structural   Dy2Ga3Cu
_chemical_formula_sum   'Dy2 Ga3 Cu1'
_cell_volume   119.01364923
_cell_formula_units_Z   1
loop_
 _symmetry_equiv_pos_site_id
 _symmetry_equiv_pos_as_xyz
  1  'x, y, z'
loop_
 _atom_site_type_symbol
 _atom_site_label
 _atom_site_symmetry_multiplicity
 _atom_site_fract_x
 _atom_site_fract_y
 _atom_site_fract_z
 _atom_site_occupancy
  Dy  Dy0  1  0.000026  0.999987  0.730977  1
  Dy  Dy1  1  0.999931  0.000034  0.260737  1
  Ga  Ga2  1  0.666618  0.666691  0.475592  1
  Ga  Ga3  1  0.666579  0.666710  0.045494  1
  Ga  Ga4  1  0.333351  0.333325  0.950691  1
  Cu  Cu5  1  0.333494  0.333253  0.536510  1
