# generated using pymatgen
data_W2Se3S
_symmetry_space_group_name_H-M   'P 1'
_cell_length_a   3.28615755
_cell_length_b   3.28614818
_cell_length_c   37.44742817
_cell_angle_alpha   90.00062382
_cell_angle_beta   90.00000000
_cell_angle_gamma   120.00009439
_symmetry_Int_Tables_number   1
_chemical_formula_structural   W2Se3S
_chemical_formula_sum   'W4 Se6 S2'
_cell_volume   350.20935212
_cell_formula_units_Z   2
loop_
 _symmetry_equiv_pos_site_id
 _symmetry_equiv_pos_as_xyz
  1  'x, y, z'
loop_
 _atom_site_type_symbol
 _atom_site_label
 _atom_site_symmetry_multiplicity
 _atom_site_fract_x
 _atom_site_fract_y
 _atom_site_fract_z
 _atom_site_occupancy
  W  W0  1  0.333309  0.666617  0.093926  1
  W  W1  1  0.333311  0.666621  0.469650  1
  W  W2  1  0.666690  0.333380  0.281795  1
  W  W3  1  0.666691  0.333383  0.657549  1
  Se  Se4  1  0.333362  0.666724  0.702855  1
  Se  Se5  1  0.666641  0.333281  0.048609  1
  Se  Se6  1  0.666641  0.333281  0.424349  1
  Se  Se7  1  0.666642  0.333282  0.139237  1
  Se  Se8  1  0.666649  0.333296  0.514957  1
  Se  Se9  1  0.333356  0.666713  0.612231  1
  S  S10  1  0.333355  0.666710  0.322942  1
  S  S11  1  0.333355  0.666711  0.240647  1
