# generated using pymatgen
data_Zn(MoO3)2
_symmetry_space_group_name_H-M   'P 1'
_cell_length_a   5.32320264
_cell_length_b   5.50890115
_cell_length_c   7.64518972
_cell_angle_alpha   89.98836288
_cell_angle_beta   90.76922901
_cell_angle_gamma   89.98970302
_symmetry_Int_Tables_number   1
_chemical_formula_structural   Zn(MoO3)2
_chemical_formula_sum   'Zn2 Mo4 O12'
_cell_volume   224.17495348
_cell_formula_units_Z   2
loop_
 _symmetry_equiv_pos_site_id
 _symmetry_equiv_pos_as_xyz
  1  'x, y, z'
loop_
 _atom_site_type_symbol
 _atom_site_label
 _atom_site_symmetry_multiplicity
 _atom_site_fract_x
 _atom_site_fract_y
 _atom_site_fract_z
 _atom_site_occupancy
  Zn  Zn0  1  0.495040  0.463841  0.250183  1
  Zn  Zn1  1  0.995374  0.035357  0.750458  1
  Mo  Mo2  1  0.502676  0.983491  0.996135  1
  Mo  Mo3  1  0.989854  0.497140  0.995456  1
  Mo  Mo4  1  0.002400  0.516504  0.496094  1
  Mo  Mo5  1  0.489624  0.002926  0.495487  1
  O  O6  1  0.683382  0.313504  0.443831  1
  O  O7  1  0.178843  0.191965  0.556595  1
  O  O8  1  0.801486  0.792270  0.048235  1
  O  O9  1  0.304453  0.714813  0.958449  1
  O  O10  1  0.300943  0.708005  0.547982  1
  O  O11  1  0.803765  0.784884  0.458086  1
  O  O12  1  0.183781  0.186735  0.943660  1
  O  O13  1  0.679146  0.307881  0.056380  1
  O  O14  1  0.129512  0.476655  0.245931  1
  O  O15  1  0.629771  0.023093  0.745913  1
  O  O16  1  0.425903  0.975022  0.255497  1
  O  O17  1  0.926221  0.525974  0.755521  1
