# generated using pymatgen
data_Cs3InI6
_symmetry_space_group_name_H-M   'P 1'
_cell_length_a   9.28862819
_cell_length_b   9.28862880
_cell_length_c   9.28862876
_cell_angle_alpha   59.99999831
_cell_angle_beta   59.99999759
_cell_angle_gamma   59.99999768
_symmetry_Int_Tables_number   1
_chemical_formula_structural   Cs3InI6
_chemical_formula_sum   'Cs3 In1 I6'
_cell_volume   566.68246353
_cell_formula_units_Z   1
loop_
 _symmetry_equiv_pos_site_id
 _symmetry_equiv_pos_as_xyz
  1  'x, y, z'
loop_
 _atom_site_type_symbol
 _atom_site_label
 _atom_site_symmetry_multiplicity
 _atom_site_fract_x
 _atom_site_fract_y
 _atom_site_fract_z
 _atom_site_occupancy
  Cs  Cs0  1  0.250000  0.250000  0.250000  1
  Cs  Cs1  1  0.750000  0.750000  0.750000  1
  Cs  Cs2  1  0.500000  0.500000  0.500000  1
  In  In3  1  -0.000000  0.000000  -0.000000  1
  I  I4  1  0.224213  0.775787  0.224213  1
  I  I5  1  0.775787  0.775787  0.224213  1
  I  I6  1  0.775787  0.224213  0.775787  1
  I  I7  1  0.775787  0.224213  0.224213  1
  I  I8  1  0.224213  0.775787  0.775787  1
  I  I9  1  0.224213  0.224213  0.775787  1
