# generated using pymatgen
data_Ca(CuO2)2
_symmetry_space_group_name_H-M   'P 1'
_cell_length_a   6.21640800
_cell_length_b   6.21693385
_cell_length_c   18.68814848
_cell_angle_alpha   59.99522435
_cell_angle_beta   60.00369502
_cell_angle_gamma   60.05845682
_symmetry_Int_Tables_number   1
_chemical_formula_structural   Ca(CuO2)2
_chemical_formula_sum   'Ca6 Cu12 O24'
_cell_volume   510.92244092
_cell_formula_units_Z   6
loop_
 _symmetry_equiv_pos_site_id
 _symmetry_equiv_pos_as_xyz
  1  'x, y, z'
loop_
 _atom_site_type_symbol
 _atom_site_label
 _atom_site_symmetry_multiplicity
 _atom_site_fract_x
 _atom_site_fract_y
 _atom_site_fract_z
 _atom_site_occupancy
  Ca  Ca0  1  0.115859  0.115927  0.050717  1
  Ca  Ca1  1  0.111158  0.111184  0.388806  1
  Ca  Ca2  1  0.497235  0.497234  0.336100  1
  Ca  Ca3  1  0.085928  0.085825  0.747303  1
  Ca  Ca4  1  0.508562  0.508605  0.991522  1
  Ca  Ca5  1  0.877660  0.877679  0.622372  1
  Cu  Cu6  1  0.498143  0.498149  0.166005  1
  Cu  Cu7  1  0.497979  0.005530  0.166096  1
  Cu  Cu8  1  0.488774  0.488788  0.508464  1
  Cu  Cu9  1  0.005549  0.498003  0.166087  1
  Cu  Cu10  1  0.488776  0.996828  0.508527  1
  Cu  Cu11  1  0.503517  0.503523  0.663165  1
  Cu  Cu12  1  0.891580  0.891669  0.275134  1
  Cu  Cu13  1  0.499433  0.499391  0.829606  1
  Cu  Cu14  1  0.996767  0.488828  0.508516  1
  Cu  Cu15  1  0.499139  0.012818  0.829529  1
  Cu  Cu16  1  0.012787  0.499103  0.829538  1
  Cu  Cu17  1  0.880098  0.880051  0.953263  1
  O  O18  1  0.253442  0.253429  0.103243  1
  O  O19  1  0.254498  0.254825  0.245868  1
  O  O20  1  0.253801  0.683799  0.102848  1
  O  O21  1  0.683716  0.253765  0.102894  1
  O  O22  1  0.238086  0.238098  0.448812  1
  O  O23  1  0.297959  0.759973  0.227318  1
  O  O24  1  0.239538  0.239149  0.594072  1
  O  O25  1  0.759962  0.297934  0.227343  1
  O  O26  1  0.756248  0.755891  0.076680  1
  O  O27  1  0.238837  0.677446  0.448525  1
  O  O28  1  0.677428  0.238808  0.448550  1
  O  O29  1  0.760150  0.760138  0.227138  1
  O  O30  1  0.284440  0.284443  0.748765  1
  O  O31  1  0.322603  0.732055  0.570896  1
  O  O32  1  0.732045  0.322582  0.570906  1
  O  O33  1  0.268754  0.268941  0.898058  1
  O  O34  1  0.769641  0.769937  0.396786  1
  O  O35  1  0.284450  0.684736  0.748738  1
  O  O36  1  0.684773  0.284478  0.748713  1
  O  O37  1  0.732560  0.732569  0.570773  1
  O  O38  1  0.267513  0.775398  0.894103  1
  O  O39  1  0.775381  0.267495  0.894124  1
  O  O40  1  0.729696  0.729436  0.770234  1
  O  O41  1  0.775541  0.775539  0.893859  1
