# generated using pymatgen
data_Te3Mo2S
_symmetry_space_group_name_H-M   'P 1'
_cell_length_a   3.46318777
_cell_length_b   3.46317394
_cell_length_c   39.22580680
_cell_angle_alpha   90.00012436
_cell_angle_beta   90.00000160
_cell_angle_gamma   120.00016093
_symmetry_Int_Tables_number   1
_chemical_formula_structural   Te3Mo2S
_chemical_formula_sum   'Te6 Mo4 S2'
_cell_volume   407.42920465
_cell_formula_units_Z   2
loop_
 _symmetry_equiv_pos_site_id
 _symmetry_equiv_pos_as_xyz
  1  'x, y, z'
loop_
 _atom_site_type_symbol
 _atom_site_label
 _atom_site_symmetry_multiplicity
 _atom_site_fract_x
 _atom_site_fract_y
 _atom_site_fract_z
 _atom_site_occupancy
  Te  Te0  1  0.333360  0.666720  0.328826  1
  Te  Te1  1  0.333353  0.666706  0.704587  1
  Te  Te2  1  0.666646  0.333290  0.422632  1
  Te  Te3  1  0.666644  0.333286  0.516694  1
  Te  Te4  1  0.333351  0.666703  0.234711  1
  Te  Te5  1  0.333356  0.666714  0.610498  1
  Mo  Mo6  1  0.333315  0.666630  0.093924  1
  Mo  Mo7  1  0.333312  0.666624  0.469658  1
  Mo  Mo8  1  0.666688  0.333376  0.281760  1
  Mo  Mo9  1  0.666690  0.333380  0.657556  1
  S  S10  1  0.666643  0.333285  0.055964  1
  S  S11  1  0.666644  0.333286  0.131938  1
