# generated using pymatgen
data_Ca(MoO2)2
_symmetry_space_group_name_H-M   'P 1'
_cell_length_a   6.57821720
_cell_length_b   6.57120448
_cell_length_c   19.91261137
_cell_angle_alpha   59.68795974
_cell_angle_beta   59.55004619
_cell_angle_gamma   60.39290253
_symmetry_Int_Tables_number   1
_chemical_formula_structural   Ca(MoO2)2
_chemical_formula_sum   'Ca6 Mo12 O24'
_cell_volume   606.87299330
_cell_formula_units_Z   6
loop_
 _symmetry_equiv_pos_site_id
 _symmetry_equiv_pos_as_xyz
  1  'x, y, z'
loop_
 _atom_site_type_symbol
 _atom_site_label
 _atom_site_symmetry_multiplicity
 _atom_site_fract_x
 _atom_site_fract_y
 _atom_site_fract_z
 _atom_site_occupancy
  Ca  Ca0  1  0.120758  0.120463  0.046400  1
  Ca  Ca1  1  0.121581  0.122169  0.378523  1
  Ca  Ca2  1  0.495819  0.496587  0.337514  1
  Ca  Ca3  1  0.125486  0.124824  0.708050  1
  Ca  Ca4  1  0.499400  0.498886  0.001210  1
  Ca  Ca5  1  0.880211  0.880053  0.620220  1
  Mo  Mo6  1  0.499555  0.499785  0.165865  1
  Mo  Mo7  1  0.499049  0.004248  0.166113  1
  Mo  Mo8  1  0.499568  0.499846  0.500712  1
  Mo  Mo9  1  0.004010  0.499175  0.166193  1
  Mo  Mo10  1  0.499082  0.000541  0.500883  1
  Mo  Mo11  1  0.500895  0.500690  0.665863  1
  Mo  Mo12  1  0.885407  0.885840  0.281325  1
  Mo  Mo13  1  0.499166  0.498714  0.831738  1
  Mo  Mo14  1  0.000357  0.499222  0.500930  1
  Mo  Mo15  1  0.499386  0.003516  0.831614  1
  Mo  Mo16  1  0.003823  0.498973  0.831649  1
  Mo  Mo17  1  0.885078  0.884444  0.947809  1
  O  O18  1  0.253060  0.252400  0.095407  1
  O  O19  1  0.263442  0.264337  0.234832  1
  O  O20  1  0.259335  0.708908  0.093487  1
  O  O21  1  0.709062  0.259283  0.093238  1
  O  O22  1  0.248585  0.247914  0.431152  1
  O  O23  1  0.270822  0.747095  0.242445  1
  O  O24  1  0.261322  0.262310  0.570170  1
  O  O25  1  0.746495  0.271665  0.241881  1
  O  O26  1  0.742204  0.740709  0.095736  1
  O  O27  1  0.255325  0.710816  0.429040  1
  O  O28  1  0.710139  0.256007  0.428605  1
  O  O29  1  0.754672  0.756755  0.238474  1
  O  O30  1  0.262562  0.261306  0.757249  1
  O  O31  1  0.296053  0.727813  0.581273  1
  O  O32  1  0.727739  0.295998  0.580906  1
  O  O33  1  0.262189  0.262727  0.901078  1
  O  O34  1  0.743141  0.741451  0.428681  1
  O  O35  1  0.267302  0.702215  0.755765  1
  O  O36  1  0.702684  0.266938  0.755417  1
  O  O37  1  0.733210  0.734460  0.579186  1
  O  O38  1  0.268923  0.748639  0.907481  1
  O  O39  1  0.749181  0.268566  0.906883  1
  O  O40  1  0.735433  0.734120  0.766100  1
  O  O41  1  0.758491  0.759590  0.902904  1
