# generated using pymatgen
data_Mn(PO4)2
_symmetry_space_group_name_H-M   'P 1'
_cell_length_a   8.04763046
_cell_length_b   9.70153867
_cell_length_c   6.65262058
_cell_angle_alpha   89.92976169
_cell_angle_beta   89.68832165
_cell_angle_gamma   127.54552268
_symmetry_Int_Tables_number   1
_chemical_formula_structural   Mn(PO4)2
_chemical_formula_sum   'Mn2 P4 O16'
_cell_volume   411.80301061
_cell_formula_units_Z   2
loop_
 _symmetry_equiv_pos_site_id
 _symmetry_equiv_pos_as_xyz
  1  'x, y, z'
loop_
 _atom_site_type_symbol
 _atom_site_label
 _atom_site_symmetry_multiplicity
 _atom_site_fract_x
 _atom_site_fract_y
 _atom_site_fract_z
 _atom_site_occupancy
  Mn  Mn0  1  0.999515  0.500720  0.501423  1
  Mn  Mn1  1  0.999296  0.999875  0.000051  1
  P  P2  1  0.263492  0.899470  0.279484  1
  P  P3  1  0.736568  0.605935  0.779014  1
  P  P4  1  0.735128  0.103350  0.724834  1
  P  P5  1  0.261406  0.395330  0.217079  1
  O  O6  1  0.479764  0.956117  0.284970  1
  O  O7  1  0.524298  0.557093  0.779852  1
  O  O8  1  0.519780  0.048887  0.722136  1
  O  O9  1  0.475451  0.447948  0.208540  1
  O  O10  1  0.077617  0.732805  0.369230  1
  O  O11  1  0.924943  0.770841  0.869001  1
  O  O12  1  0.921586  0.270141  0.635672  1
  O  O13  1  0.072677  0.228203  0.131407  1
  O  O14  1  0.221403  0.014096  0.177413  1
  O  O15  1  0.779041  0.489620  0.683476  1
  O  O16  1  0.776370  0.986927  0.823230  1
  O  O17  1  0.217236  0.509453  0.315764  1
  O  O18  1  0.811623  0.880205  0.190127  1
  O  O19  1  0.189193  0.620364  0.689378  1
  O  O20  1  0.185405  0.119320  0.808951  1
  O  O21  1  0.810867  0.383283  0.311452  1
