# generated using pymatgen
data_Nb2Se4O13
_symmetry_space_group_name_H-M   'P 1'
_cell_length_a   6.89968258
_cell_length_b   7.75754174
_cell_length_c   11.69262363
_cell_angle_alpha   109.17605627
_cell_angle_beta   90.00000000
_cell_angle_gamma   90.00000000
_symmetry_Int_Tables_number   1
_chemical_formula_structural   Nb2Se4O13
_chemical_formula_sum   'Nb4 Se8 O26'
_cell_volume   591.11703319
_cell_formula_units_Z   2
loop_
 _symmetry_equiv_pos_site_id
 _symmetry_equiv_pos_as_xyz
  1  'x, y, z'
loop_
 _atom_site_type_symbol
 _atom_site_label
 _atom_site_symmetry_multiplicity
 _atom_site_fract_x
 _atom_site_fract_y
 _atom_site_fract_z
 _atom_site_occupancy
  O  O0  1  0.901238  0.500016  0.637904  1
  O  O1  1  0.098762  0.000016  0.637904  1
  O  O2  1  0.420957  0.300337  0.812547  1
  O  O3  1  0.579043  0.800337  0.812547  1
  O  O4  1  0.754968  0.134612  0.722771  1
  O  O5  1  0.245032  0.634612  0.722771  1
  O  O6  1  0.422390  0.336549  0.402320  1
  O  O7  1  0.577610  0.836549  0.402320  1
  O  O8  1  0.475297  0.177298  0.576677  1
  O  O9  1  0.524703  0.677298  0.576677  1
  O  O10  1  0.783561  0.160540  0.404629  1
  O  O11  1  0.216439  0.660540  0.404629  1
  O  O12  1  0.012893  0.727463  0.230783  1
  O  O13  1  0.987107  0.227463  0.230783  1
  O  O14  1  0.716228  0.730559  0.058973  1
  O  O15  1  0.283772  0.230559  0.058973  1
  O  O16  1  0.715950  0.076120  0.042413  1
  O  O17  1  0.284050  0.576120  0.042413  1
  O  O18  1  0.982408  0.561407  0.869927  1
  O  O19  1  0.017592  0.061407  0.869927  1
  O  O20  1  0.076783  0.900184  0.051334  1
  O  O21  1  0.923217  0.400184  0.051334  1
  O  O22  1  0.520204  0.002275  0.215331  1
  O  O23  1  0.479796  0.502275  0.215331  1
  O  O24  1  0.780817  0.500299  0.379841  1
  O  O25  1  0.219183  1.000299  0.379841  1
  Se  Se26  1  0.485515  0.107767  0.707291  1
  Se  Se27  1  0.514485  0.607767  0.707291  1
  Se  Se28  1  0.928304  0.952314  0.722676  1
  Se  Se29  1  0.071696  0.452314  0.722676  1
  Se  Se30  1  0.936822  0.323867  0.382407  1
  Se  Se31  1  0.063178  0.823867  0.382407  1
  Se  Se32  1  0.437837  0.411793  0.061382  1
  Se  Se33  1  0.562163  0.911793  0.061382  1
  Nb  Nb34  1  0.507103  0.058734  0.396638  1
  Nb  Nb35  1  0.492897  0.558734  0.396638  1
  Nb  Nb36  1  0.995612  0.174166  0.048155  1
  Nb  Nb37  1  0.004388  0.674166  0.048155  1
