# generated using pymatgen
data_GaSeBr7
_symmetry_space_group_name_H-M   'P 1'
_cell_length_a   6.77328229
_cell_length_b   7.00651549
_cell_length_c   15.31278763
_cell_angle_alpha   104.07327696
_cell_angle_beta   90.00000000
_cell_angle_gamma   90.00000000
_symmetry_Int_Tables_number   1
_chemical_formula_structural   GaSeBr7
_chemical_formula_sum   'Ga2 Se2 Br14'
_cell_volume   704.88907352
_cell_formula_units_Z   2
loop_
 _symmetry_equiv_pos_site_id
 _symmetry_equiv_pos_as_xyz
  1  'x, y, z'
loop_
 _atom_site_type_symbol
 _atom_site_label
 _atom_site_symmetry_multiplicity
 _atom_site_fract_x
 _atom_site_fract_y
 _atom_site_fract_z
 _atom_site_occupancy
  Ga  Ga0  1  0.997872  0.662808  0.501585  1
  Ga  Ga1  1  0.002128  0.662808  0.001585  1
  Se  Se2  1  0.593352  0.948800  0.662009  1
  Se  Se3  1  0.406648  0.948800  0.162009  1
  Br  Br4  1  0.605655  0.828084  0.264188  1
  Br  Br5  1  0.394345  0.828084  0.764188  1
  Br  Br6  1  0.126149  0.982308  0.004768  1
  Br  Br7  1  0.873851  0.982308  0.504768  1
  Br  Br8  1  0.129800  0.592064  0.135739  1
  Br  Br9  1  0.870200  0.592064  0.635739  1
  Br  Br10  1  0.133136  0.440657  0.872920  1
  Br  Br11  1  0.866864  0.440657  0.372920  1
  Br  Br12  1  0.655922  0.638646  0.997111  1
  Br  Br13  1  0.344078  0.638646  0.497111  1
  Br  Br14  1  0.389538  0.201539  0.632337  1
  Br  Br15  1  0.610462  0.201539  0.132337  1
  Br  Br16  1  0.814076  0.152344  0.766214  1
  Br  Br17  1  0.185924  0.152344  0.266214  1
