# generated using pymatgen
data_Mn3(Ni10P3)2
_symmetry_space_group_name_H-M   'P 1'
_cell_length_a   7.75772419
_cell_length_b   7.75772419
_cell_length_c   7.75772419
_cell_angle_alpha   59.99999997
_cell_angle_beta   59.99999995
_cell_angle_gamma   60.00000001
_symmetry_Int_Tables_number   1
_chemical_formula_structural   Mn3(Ni10P3)2
_chemical_formula_sum   'Mn3 Ni20 P6'
_cell_volume   330.13229224
_cell_formula_units_Z   1
loop_
 _symmetry_equiv_pos_site_id
 _symmetry_equiv_pos_as_xyz
  1  'x, y, z'
loop_
 _atom_site_type_symbol
 _atom_site_label
 _atom_site_symmetry_multiplicity
 _atom_site_fract_x
 _atom_site_fract_y
 _atom_site_fract_z
 _atom_site_occupancy
  P  P0  1  0.264078  0.735922  0.735922  1
  P  P1  1  0.735922  0.264078  0.264078  1
  P  P2  1  0.735922  0.735922  0.264078  1
  P  P3  1  0.264078  0.735922  0.264078  1
  P  P4  1  0.735922  0.264078  0.735922  1
  P  P5  1  0.264078  0.264078  0.735922  1
  Mn  Mn6  1  0.750000  0.750000  0.750000  1
  Mn  Mn7  1  0.250000  0.250000  0.250000  1
  Mn  Mn8  1  0.000000  0.000000  0.000000  1
  Ni  Ni9  1  0.379574  0.861279  0.379574  1
  Ni  Ni10  1  0.620426  0.620426  0.620426  1
  Ni  Ni11  1  0.347756  0.000000  0.000000  1
  Ni  Ni12  1  0.000000  0.000000  0.347756  1
  Ni  Ni13  1  0.347756  0.652244  0.000000  1
  Ni  Ni14  1  0.379574  0.379574  0.861279  1
  Ni  Ni15  1  0.000000  0.652244  0.347756  1
  Ni  Ni16  1  0.000000  0.347756  0.000000  1
  Ni  Ni17  1  0.347756  0.000000  0.652244  1
  Ni  Ni18  1  0.652244  0.347756  0.000000  1
  Ni  Ni19  1  0.000000  0.652244  0.000000  1
  Ni  Ni20  1  0.652244  0.000000  0.347756  1
  Ni  Ni21  1  0.000000  0.000000  0.652244  1
  Ni  Ni22  1  0.652244  0.000000  0.000000  1
  Ni  Ni23  1  0.861279  0.379574  0.379574  1
  Ni  Ni24  1  0.620426  0.138721  0.620426  1
  Ni  Ni25  1  0.138721  0.620426  0.620426  1
  Ni  Ni26  1  0.620426  0.620426  0.138721  1
  Ni  Ni27  1  0.379574  0.379574  0.379574  1
  Ni  Ni28  1  0.000000  0.347756  0.652244  1
