# generated using pymatgen
data_Rb2SnCl6
_symmetry_space_group_name_H-M   'P 1'
_cell_length_a   7.36411802
_cell_length_b   7.36411802
_cell_length_c   7.36411802
_cell_angle_alpha   60.00000002
_cell_angle_beta   59.99999999
_cell_angle_gamma   60.00000002
_symmetry_Int_Tables_number   1
_chemical_formula_structural   Rb2SnCl6
_chemical_formula_sum   'Rb2 Sn1 Cl6'
_cell_volume   282.38864048
_cell_formula_units_Z   1
loop_
 _symmetry_equiv_pos_site_id
 _symmetry_equiv_pos_as_xyz
  1  'x, y, z'
loop_
 _atom_site_type_symbol
 _atom_site_label
 _atom_site_symmetry_multiplicity
 _atom_site_fract_x
 _atom_site_fract_y
 _atom_site_fract_z
 _atom_site_occupancy
  Cl  Cl0  1  0.237494  0.762506  0.762506  1
  Cl  Cl1  1  0.237494  0.762506  0.237494  1
  Cl  Cl2  1  0.762506  0.237494  0.762506  1
  Cl  Cl3  1  0.762506  0.237494  0.237494  1
  Cl  Cl4  1  0.762506  0.762506  0.237494  1
  Cl  Cl5  1  0.237494  0.237494  0.762506  1
  Rb  Rb6  1  0.250000  0.250000  0.250000  1
  Rb  Rb7  1  0.750000  0.750000  0.750000  1
  Sn  Sn8  1  0.000000  0.000000  0.000000  1
