# generated using pymatgen
data_BaSi7N10
_symmetry_space_group_name_H-M   'P 1'
_cell_length_a   6.77019000
_cell_length_b   6.92471980
_cell_length_c   9.69746340
_cell_angle_alpha   106.17471369
_cell_angle_beta   90.00000000
_cell_angle_gamma   90.00000000
_symmetry_Int_Tables_number   1
_chemical_formula_structural   BaSi7N10
_chemical_formula_sum   'Ba2 Si14 N20'
_cell_volume   436.63739005
_cell_formula_units_Z   2
loop_
 _symmetry_equiv_pos_site_id
 _symmetry_equiv_pos_as_xyz
  1  'x, y, z'
loop_
 _atom_site_type_symbol
 _atom_site_label
 _atom_site_symmetry_multiplicity
 _atom_site_fract_x
 _atom_site_fract_y
 _atom_site_fract_z
 _atom_site_occupancy
  Ba  Ba0  1  0.594047  0.710603  0.787775  1
  Ba  Ba1  1  0.405953  0.710603  0.287775  1
  Si  Si2  1  0.865485  0.004847  0.468295  1
  Si  Si3  1  0.134515  0.004847  0.968295  1
  Si  Si4  1  0.871339  0.187593  0.773446  1
  Si  Si5  1  0.128661  0.187593  0.273446  1
  Si  Si6  1  0.118617  0.374910  0.577135  1
  Si  Si7  1  0.881383  0.374910  0.077135  1
  Si  Si8  1  0.106535  0.561984  0.888171  1
  Si  Si9  1  0.893465  0.561984  0.388171  1
  Si  Si10  1  0.124115  0.822028  0.653412  1
  Si  Si11  1  0.875885  0.822028  0.153412  1
  Si  Si12  1  0.472905  0.131019  0.632577  1
  Si  Si13  1  0.527095  0.131019  0.132577  1
  Si  Si14  1  0.472321  0.314140  0.944358  1
  Si  Si15  1  0.527679  0.314140  0.444358  1
  N  N16  1  0.915662  0.967549  0.637122  1
  N  N17  1  0.084338  0.967549  0.137122  1
  N  N18  1  0.888891  0.783419  0.329407  1
  N  N19  1  0.111109  0.783419  0.829407  1
  N  N20  1  0.922804  0.592647  0.023999  1
  N  N21  1  0.077196  0.592647  0.523999  1
  N  N22  1  0.000080  0.385977  0.737171  1
  N  N23  1  0.999920  0.385977  0.237171  1
  N  N24  1  0.036747  0.173483  0.437088  1
  N  N25  1  0.963253  0.173483  0.937088  1
  N  N26  1  0.617075  0.224802  0.788483  1
  N  N27  1  0.382925  0.224802  0.288483  1
  N  N28  1  0.341419  0.926022  0.630511  1
  N  N29  1  0.658581  0.926022  0.130511  1
  N  N30  1  0.333034  0.512829  0.942753  1
  N  N31  1  0.666966  0.512829  0.442753  1
  N  N32  1  0.367564  0.102909  0.985059  1
  N  N33  1  0.632436  0.102909  0.485059  1
  N  N34  1  0.630696  0.348798  0.094997  1
  N  N35  1  0.369304  0.348798  0.594997  1
