# generated using pymatgen
data_ZrSnCl6
_symmetry_space_group_name_H-M   'P 1'
_cell_length_a   6.68519602
_cell_length_b   11.97743939
_cell_length_c   18.83345160
_cell_angle_alpha   91.95033278
_cell_angle_beta   90.00000000
_cell_angle_gamma   90.00000000
_symmetry_Int_Tables_number   1
_chemical_formula_structural   ZrSnCl6
_chemical_formula_sum   'Zr6 Sn6 Cl36'
_cell_volume   1507.14969556
_cell_formula_units_Z   6
loop_
 _symmetry_equiv_pos_site_id
 _symmetry_equiv_pos_as_xyz
  1  'x, y, z'
loop_
 _atom_site_type_symbol
 _atom_site_label
 _atom_site_symmetry_multiplicity
 _atom_site_fract_x
 _atom_site_fract_y
 _atom_site_fract_z
 _atom_site_occupancy
  Cl  Cl0  1  0.154635  0.831969  0.252551  1
  Cl  Cl1  1  0.845365  0.831969  0.752551  1
  Cl  Cl2  1  0.691726  0.319114  0.234605  1
  Cl  Cl3  1  0.308274  0.319114  0.734605  1
  Cl  Cl4  1  0.306897  1.016127  0.072099  1
  Cl  Cl5  1  0.693103  1.016127  0.572099  1
  Cl  Cl6  1  0.345913  0.637085  0.441289  1
  Cl  Cl7  1  0.654087  0.637085  0.941289  1
  Cl  Cl8  1  0.853774  0.152666  0.417034  1
  Cl  Cl9  1  0.146226  0.152666  0.917034  1
  Cl  Cl10  1  0.140946  0.172182  0.575476  1
  Cl  Cl11  1  0.859054  0.172182  0.075476  1
  Cl  Cl12  1  0.342865  0.678720  0.757376  1
  Cl  Cl13  1  0.657135  0.678720  0.257376  1
  Cl  Cl14  1  0.839977  0.187371  0.728354  1
  Cl  Cl15  1  0.160023  0.187371  0.228354  1
  Cl  Cl16  1  0.843521  0.855775  0.421818  1
  Cl  Cl17  1  0.156479  0.855775  0.921818  1
  Cl  Cl18  1  0.353607  0.337551  0.436456  1
  Cl  Cl19  1  0.646393  0.337551  0.936456  1
  Cl  Cl20  1  0.804632  0.489278  0.424523  1
  Cl  Cl21  1  0.195368  0.489278  0.924523  1
  Cl  Cl22  1  0.308488  0.008976  0.425105  1
  Cl  Cl23  1  0.691512  0.008976  0.925105  1
  Cl  Cl24  1  0.851042  0.869803  0.073666  1
  Cl  Cl25  1  0.148958  0.869803  0.573666  1
  Cl  Cl26  1  0.296378  0.340072  0.078566  1
  Cl  Cl27  1  0.703622  0.340072  0.578566  1
  Cl  Cl28  1  0.655584  -0.007285  0.257069  1
  Cl  Cl29  1  0.344416  -0.007285  0.757069  1
  Cl  Cl30  1  0.864531  0.483516  0.734888  1
  Cl  Cl31  1  0.135469  0.483516  0.234888  1
  Cl  Cl32  1  0.344914  0.627371  0.089619  1
  Cl  Cl33  1  0.655086  0.627371  0.589619  1
  Cl  Cl34  1  0.802036  0.470469  0.087577  1
  Cl  Cl35  1  0.197964  0.470469  0.587577  1
  Zr  Zr36  1  0.480946  0.493042  1.002003  1
  Zr  Zr37  1  0.519054  0.493042  0.502003  1
  Zr  Zr38  1  0.992960  0.330609  0.163457  1
  Zr  Zr39  1  0.007040  0.330609  0.663457  1
  Zr  Zr40  1  -0.009854  1.004998  0.499780  1
  Zr  Zr41  1  1.009854  1.004998  0.999780  1
  Sn  Sn42  1  0.989308  0.677860  0.329839  1
  Sn  Sn43  1  0.010692  0.677860  0.829839  1
  Sn  Sn44  1  0.491680  0.156921  0.839681  1
  Sn  Sn45  1  0.508320  0.156921  0.339681  1
  Sn  Sn46  1  0.489956  0.833813  0.175070  1
  Sn  Sn47  1  0.510044  0.833813  0.675070  1
