# generated using pymatgen
data_Eu3TaO6
_symmetry_space_group_name_H-M   'P 1'
_cell_length_a   6.01433544
_cell_length_b   6.01433544
_cell_length_c   6.01433545
_cell_angle_alpha   60.00000003
_cell_angle_beta   60.00000001
_cell_angle_gamma   60.00000005
_symmetry_Int_Tables_number   1
_chemical_formula_structural   Eu3TaO6
_chemical_formula_sum   'Eu3 Ta1 O6'
_cell_volume   153.83244517
_cell_formula_units_Z   1
loop_
 _symmetry_equiv_pos_site_id
 _symmetry_equiv_pos_as_xyz
  1  'x, y, z'
loop_
 _atom_site_type_symbol
 _atom_site_label
 _atom_site_symmetry_multiplicity
 _atom_site_fract_x
 _atom_site_fract_y
 _atom_site_fract_z
 _atom_site_occupancy
  O  O0  1  0.233634  0.766366  0.766366  1
  O  O1  1  0.233634  0.766366  0.233634  1
  O  O2  1  0.766366  0.233634  0.766366  1
  O  O3  1  0.233634  0.233634  0.766366  1
  O  O4  1  0.766366  0.233634  0.233634  1
  O  O5  1  0.766366  0.766366  0.233634  1
  Eu  Eu6  1  0.250000  0.250000  0.250000  1
  Eu  Eu7  1  0.500000  0.500000  0.500000  1
  Eu  Eu8  1  0.750000  0.750000  0.750000  1
  Ta  Ta9  1  0.000000  0.000000  0.000000  1
