# generated using pymatgen
data_Mg6Ni16Ge7
_symmetry_space_group_name_H-M   'P 1'
_cell_length_a   8.16033233
_cell_length_b   8.16033233
_cell_length_c   8.16033233
_cell_angle_alpha   60.00000004
_cell_angle_beta   60.00000003
_cell_angle_gamma   60.00000005
_symmetry_Int_Tables_number   1
_chemical_formula_structural   Mg6Ni16Ge7
_chemical_formula_sum   'Mg6 Ni16 Ge7'
_cell_volume   384.24527845
_cell_formula_units_Z   1
loop_
 _symmetry_equiv_pos_site_id
 _symmetry_equiv_pos_as_xyz
  1  'x, y, z'
loop_
 _atom_site_type_symbol
 _atom_site_label
 _atom_site_symmetry_multiplicity
 _atom_site_fract_x
 _atom_site_fract_y
 _atom_site_fract_z
 _atom_site_occupancy
  Mg  Mg0  1  0.795283  0.204717  0.204717  1
  Mg  Mg1  1  0.795283  0.795283  0.204717  1
  Mg  Mg2  1  0.204717  0.204717  0.795283  1
  Mg  Mg3  1  0.795283  0.204717  0.795283  1
  Mg  Mg4  1  0.204717  0.795283  0.204717  1
  Mg  Mg5  1  0.204717  0.795283  0.795283  1
  Ni  Ni6  1  0.168572  0.168572  0.168572  1
  Ni  Ni7  1  0.831428  0.831428  0.505716  1
  Ni  Ni8  1  0.505716  0.831428  0.831428  1
  Ni  Ni9  1  0.831428  0.505716  0.831428  1
  Ni  Ni10  1  0.494284  0.168572  0.168572  1
  Ni  Ni11  1  0.168572  0.494284  0.168572  1
  Ni  Ni12  1  0.168572  0.168572  0.494284  1
  Ni  Ni13  1  0.831428  0.831428  0.831428  1
  Ni  Ni14  1  0.381553  0.381553  0.381553  1
  Ni  Ni15  1  0.618447  0.618447  0.144659  1
  Ni  Ni16  1  0.144659  0.618447  0.618447  1
  Ni  Ni17  1  0.618447  0.144659  0.618447  1
  Ni  Ni18  1  0.855341  0.381553  0.381553  1
  Ni  Ni19  1  0.381553  0.855341  0.381553  1
  Ni  Ni20  1  0.381553  0.381553  0.855341  1
  Ni  Ni21  1  0.618447  0.618447  0.618447  1
  Ge  Ge22  1  0.500000  0.500000  0.500000  1
  Ge  Ge23  1  0.500000  0.000000  0.000000  1
  Ge  Ge24  1  0.000000  0.000000  0.500000  1
  Ge  Ge25  1  0.500000  0.500000  0.000000  1
  Ge  Ge26  1  0.000000  0.500000  0.500000  1
  Ge  Ge27  1  0.000000  0.500000  0.000000  1
  Ge  Ge28  1  0.500000  0.000000  0.500000  1
