# generated using pymatgen
data_Rb3Bi2I9
_symmetry_space_group_name_H-M   'P 1'
_cell_length_a   8.45412596
_cell_length_b   15.09137655
_cell_length_c   21.53507771
_cell_angle_alpha   91.60785866
_cell_angle_beta   90.00000000
_cell_angle_gamma   90.00000000
_symmetry_Int_Tables_number   1
_chemical_formula_structural   Rb3Bi2I9
_chemical_formula_sum   'Rb12 Bi8 I36'
_cell_volume   2746.45815862
_cell_formula_units_Z   4
loop_
 _symmetry_equiv_pos_site_id
 _symmetry_equiv_pos_as_xyz
  1  'x, y, z'
loop_
 _atom_site_type_symbol
 _atom_site_label
 _atom_site_symmetry_multiplicity
 _atom_site_fract_x
 _atom_site_fract_y
 _atom_site_fract_z
 _atom_site_occupancy
  Rb  Rb0  1  0.777809  0.800289  0.452462  1
  Rb  Rb1  1  0.222191  0.300289  0.952462  1
  Rb  Rb2  1  0.266110  0.345352  0.405433  1
  Rb  Rb3  1  0.733890  0.845352  0.905433  1
  Rb  Rb4  1  0.227072  0.626476  0.623922  1
  Rb  Rb5  1  0.772928  0.126476  0.123922  1
  Rb  Rb6  1  0.232196  0.967047  0.288760  1
  Rb  Rb7  1  0.767804  0.467047  0.788760  1
  Rb  Rb8  1  0.726263  0.189099  0.568439  1
  Rb  Rb9  1  0.273738  0.689099  0.068439  1
  Rb  Rb10  1  0.717915  0.513724  0.239973  1
  Rb  Rb11  1  0.282085  0.013724  0.739973  1
  I  I12  1  0.331464  0.829664  0.427938  1
  I  I13  1  0.440460  0.397740  0.563273  1
  I  I14  1  0.342618  0.165900  0.090699  1
  I  I15  1  0.657382  0.665900  0.590699  1
  I  I16  1  0.177657  0.827230  0.930972  1
  I  I17  1  0.822343  0.327230  0.430972  1
  I  I18  1  0.440521  0.068363  0.905128  1
  I  I19  1  0.559479  0.568363  0.405128  1
  I  I20  1  0.548262  0.232723  0.730661  1
  I  I21  1  0.451738  0.732723  0.230661  1
  I  I22  1  0.039647  0.526734  0.936520  1
  I  I23  1  0.559540  0.897740  0.063273  1
  I  I24  1  0.949406  0.084777  0.963090  1
  I  I25  1  0.050594  0.584777  0.463090  1
  I  I26  1  0.951141  0.701321  0.763282  1
  I  I27  1  0.048859  0.201321  0.263282  1
  I  I28  1  0.842776  0.650651  0.103156  1
  I  I29  1  0.157224  0.150651  0.603156  1
  I  I30  1  0.430982  0.459420  0.094969  1
  I  I31  1  0.569018  0.959420  0.594969  1
  I  I32  1  0.054538  0.252347  0.787171  1
  I  I33  1  0.945462  0.752347  0.287171  1
  I  I34  1  0.928756  0.356243  0.101641  1
  I  I35  1  0.071244  0.856243  0.601641  1
  I  I36  1  0.465673  0.787400  0.760552  1
  I  I37  1  0.534327  0.287400  0.260552  1
  I  I38  1  0.939065  0.418236  0.628902  1
  I  I39  1  0.060935  0.918236  0.128902  1
  I  I40  1  0.552972  0.610709  0.929618  1
  I  I41  1  0.447028  0.110709  0.429618  1
  I  I42  1  0.324063  0.490571  0.761161  1
  I  I43  1  0.675937  0.990571  0.261161  1
  I  I44  1  0.161757  0.483439  0.268199  1
  I  I45  1  0.838243  0.983439  0.768199  1
  I  I46  1  0.960353  0.026734  0.436520  1
  I  I47  1  0.668536  0.329664  0.927938  1
  Bi  Bi48  1  0.241335  0.325333  0.187810  1
  Bi  Bi49  1  0.758665  0.825333  0.687810  1
  Bi  Bi50  1  0.759130  0.493587  0.505647  1
  Bi  Bi51  1  0.240870  0.993587  0.005647  1
  Bi  Bi52  1  0.741841  0.824312  0.186910  1
  Bi  Bi53  1  0.258159  0.324312  0.686910  1
  Bi  Bi54  1  0.256102  0.989015  0.507711  1
  Bi  Bi55  1  0.743898  0.489015  0.007711  1
