# generated using pymatgen
data_In2(Ni7B2)3
_symmetry_space_group_name_H-M   'P 1'
_cell_length_a   7.48099120
_cell_length_b   7.48099120
_cell_length_c   7.48099120
_cell_angle_alpha   60.00000001
_cell_angle_beta   59.99999998
_cell_angle_gamma   60.00000002
_symmetry_Int_Tables_number   1
_chemical_formula_structural   In2(Ni7B2)3
_chemical_formula_sum   'In2 Ni21 B6'
_cell_volume   296.04820603
_cell_formula_units_Z   1
loop_
 _symmetry_equiv_pos_site_id
 _symmetry_equiv_pos_as_xyz
  1  'x, y, z'
loop_
 _atom_site_type_symbol
 _atom_site_label
 _atom_site_symmetry_multiplicity
 _atom_site_fract_x
 _atom_site_fract_y
 _atom_site_fract_z
 _atom_site_occupancy
  B  B0  1  0.272479  0.727521  0.727521  1
  B  B1  1  0.272479  0.727521  0.272479  1
  B  B2  1  0.727521  0.727521  0.272479  1
  B  B3  1  0.727521  0.272479  0.272479  1
  B  B4  1  0.727521  0.272479  0.727521  1
  B  B5  1  0.272479  0.272479  0.727521  1
  Ni  Ni6  1  0.158651  0.613783  0.613783  1
  Ni  Ni7  1  0.841349  0.386217  0.386217  1
  Ni  Ni8  1  0.386217  0.841349  0.386217  1
  Ni  Ni9  1  0.386217  0.386217  0.841349  1
  Ni  Ni10  1  0.613783  0.613783  0.613783  1
  Ni  Ni11  1  0.336121  0.000000  0.000000  1
  Ni  Ni12  1  0.000000  0.000000  0.336121  1
  Ni  Ni13  1  0.613783  0.158651  0.613783  1
  Ni  Ni14  1  0.000000  0.336121  0.663879  1
  Ni  Ni15  1  0.000000  0.663879  0.336121  1
  Ni  Ni16  1  0.000000  0.336121  0.000000  1
  Ni  Ni17  1  0.336121  0.000000  0.663879  1
  Ni  Ni18  1  0.663879  0.336121  0.000000  1
  Ni  Ni19  1  0.000000  0.663879  0.000000  1
  Ni  Ni20  1  0.663879  0.000000  0.336121  1
  Ni  Ni21  1  0.000000  0.000000  0.663879  1
  Ni  Ni22  1  0.663879  0.000000  0.000000  1
  Ni  Ni23  1  0.386217  0.386217  0.386217  1
  Ni  Ni24  1  0.000000  0.000000  0.000000  1
  Ni  Ni25  1  0.336121  0.663879  0.000000  1
  Ni  Ni26  1  0.613783  0.613783  0.158651  1
  In  In27  1  0.750000  0.750000  0.750000  1
  In  In28  1  0.250000  0.250000  0.250000  1
