# generated using pymatgen
data_Tl2SnCl6
_symmetry_space_group_name_H-M   'P 1'
_cell_length_a   7.25683686
_cell_length_b   7.25683686
_cell_length_c   7.25683686
_cell_angle_alpha   59.99999999
_cell_angle_beta   59.99999999
_cell_angle_gamma   59.99999996
_symmetry_Int_Tables_number   1
_chemical_formula_structural   Tl2SnCl6
_chemical_formula_sum   'Tl2 Sn1 Cl6'
_cell_volume   270.22596805
_cell_formula_units_Z   1
loop_
 _symmetry_equiv_pos_site_id
 _symmetry_equiv_pos_as_xyz
  1  'x, y, z'
loop_
 _atom_site_type_symbol
 _atom_site_label
 _atom_site_symmetry_multiplicity
 _atom_site_fract_x
 _atom_site_fract_y
 _atom_site_fract_z
 _atom_site_occupancy
  Cl  Cl0  1  0.240536  0.759464  0.759464  1
  Cl  Cl1  1  0.240536  0.759464  0.240536  1
  Cl  Cl2  1  0.759464  0.240536  0.759464  1
  Cl  Cl3  1  0.759464  0.240536  0.240536  1
  Cl  Cl4  1  0.759464  0.759464  0.240536  1
  Cl  Cl5  1  0.240536  0.240536  0.759464  1
  Sn  Sn6  1  0.000000  0.000000  0.000000  1
  Tl  Tl7  1  0.250000  0.250000  0.250000  1
  Tl  Tl8  1  0.750000  0.750000  0.750000  1
