# generated using pymatgen
data_KAuCl4
_symmetry_space_group_name_H-M   'P 1'
_cell_length_a   6.58688167
_cell_length_b   9.10042254
_cell_length_c   12.51330976
_cell_angle_alpha   96.56537606
_cell_angle_beta   90.00000000
_cell_angle_gamma   90.00000000
_symmetry_Int_Tables_number   1
_chemical_formula_structural   KAuCl4
_chemical_formula_sum   'K4 Au4 Cl16'
_cell_volume   745.17135062
_cell_formula_units_Z   4
loop_
 _symmetry_equiv_pos_site_id
 _symmetry_equiv_pos_as_xyz
  1  'x, y, z'
loop_
 _atom_site_type_symbol
 _atom_site_label
 _atom_site_symmetry_multiplicity
 _atom_site_fract_x
 _atom_site_fract_y
 _atom_site_fract_z
 _atom_site_occupancy
  Cl  Cl0  1  0.499594  0.651627  0.563398  1
  Cl  Cl1  1  0.500406  0.651627  0.063398  1
  Cl  Cl2  1  0.997654  0.325399  0.423875  1
  Cl  Cl3  1  0.002346  0.325399  0.923875  1
  Cl  Cl4  1  0.101427  0.492829  0.662482  1
  Cl  Cl5  1  0.898573  0.492829  0.162482  1
  Cl  Cl6  1  0.397083  0.482776  0.324785  1
  Cl  Cl7  1  0.602917  0.482776  0.824785  1
  Cl  Cl8  1  0.460872  0.107737  0.951163  1
  Cl  Cl9  1  0.539128  0.107737  0.451163  1
  Cl  Cl10  1  0.045131  0.867397  0.045602  1
  Cl  Cl11  1  0.954869  0.867397  0.545602  1
  Cl  Cl12  1  0.802842  0.896131  0.819194  1
  Cl  Cl13  1  0.197158  0.896131  0.319194  1
  Cl  Cl14  1  0.702306  0.078290  0.177947  1
  Cl  Cl15  1  0.297694  0.078290  0.677947  1
  K  K16  1  0.698547  0.770883  0.313271  1
  K  K17  1  0.301453  0.770883  0.813271  1
  K  K18  1  0.199939  0.200811  0.180799  1
  K  K19  1  0.800061  0.200811  0.680799  1
  Au  Au20  1  0.248978  0.488135  0.493646  1
  Au  Au21  1  0.751022  0.488135  0.993646  1
  Au  Au22  1  0.247364  0.987284  0.498538  1
  Au  Au23  1  0.752636  0.987284  0.998538  1
