# generated using pymatgen
data_AlTeI7
_symmetry_space_group_name_H-M   'P 1'
_cell_length_a   7.48030430
_cell_length_b   7.75885987
_cell_length_c   16.86105824
_cell_angle_alpha   104.62013994
_cell_angle_beta   90.00000000
_cell_angle_gamma   90.00000000
_symmetry_Int_Tables_number   1
_chemical_formula_structural   AlTeI7
_chemical_formula_sum   'Al2 Te2 I14'
_cell_volume   946.90643026
_cell_formula_units_Z   2
loop_
 _symmetry_equiv_pos_site_id
 _symmetry_equiv_pos_as_xyz
  1  'x, y, z'
loop_
 _atom_site_type_symbol
 _atom_site_label
 _atom_site_symmetry_multiplicity
 _atom_site_fract_x
 _atom_site_fract_y
 _atom_site_fract_z
 _atom_site_occupancy
  Al  Al0  1  0.995564  0.288268  0.654357  1
  Al  Al1  1  0.004436  0.288268  0.154357  1
  Te  Te2  1  0.597678  0.001754  0.501694  1
  Te  Te3  1  0.402322  0.001754  0.001694  1
  I  I4  1  0.384368  0.108189  0.388688  1
  I  I5  1  0.393332  0.728319  0.532907  1
  I  I6  1  0.169497  0.784501  0.890325  1
  I  I7  1  0.830503  0.784501  0.390325  1
  I  I8  1  0.119811  0.974529  0.154782  1
  I  I9  1  0.606668  0.728319  0.032907  1
  I  I10  1  0.126017  0.352778  0.021122  1
  I  I11  1  0.873983  0.352778  0.521122  1
  I  I12  1  0.664770  0.313792  0.161848  1
  I  I13  1  0.335230  0.313792  0.661848  1
  I  I14  1  0.143049  0.509971  0.278798  1
  I  I15  1  0.856951  0.509971  0.778798  1
  I  I16  1  0.615632  0.108189  0.888688  1
  I  I17  1  0.880189  0.974529  0.654782  1
