# generated using pymatgen
data_Rb4Cu5Cl9
_symmetry_space_group_name_H-M   'P 1'
_cell_length_a   8.83686450
_cell_length_b   15.62266034
_cell_length_c   15.86844237
_cell_angle_alpha   107.93455725
_cell_angle_beta   90.00000000
_cell_angle_gamma   90.00000000
_symmetry_Int_Tables_number   1
_chemical_formula_structural   Rb4Cu5Cl9
_chemical_formula_sum   'Rb16 Cu20 Cl36'
_cell_volume   2084.27333976
_cell_formula_units_Z   4
loop_
 _symmetry_equiv_pos_site_id
 _symmetry_equiv_pos_as_xyz
  1  'x, y, z'
loop_
 _atom_site_type_symbol
 _atom_site_label
 _atom_site_symmetry_multiplicity
 _atom_site_fract_x
 _atom_site_fract_y
 _atom_site_fract_z
 _atom_site_occupancy
  Rb  Rb0  1  0.309173  0.002100  0.000471  1
  Rb  Rb1  1  0.690827  0.002100  0.500471  1
  Rb  Rb2  1  0.164831  0.017971  0.301338  1
  Rb  Rb3  1  0.835169  0.017971  0.801338  1
  Rb  Rb4  1  0.473253  0.530256  0.478359  1
  Rb  Rb5  1  0.526747  0.530256  0.978359  1
  Rb  Rb6  1  0.045014  0.517420  0.118205  1
  Rb  Rb7  1  0.954986  0.517420  0.618205  1
  Rb  Rb8  1  0.184983  0.267641  0.885102  1
  Rb  Rb9  1  0.815017  0.267641  0.385102  1
  Rb  Rb10  1  0.344512  0.247869  0.569214  1
  Rb  Rb11  1  0.655488  0.247869  0.069214  1
  Rb  Rb12  1  0.462609  0.750471  0.764610  1
  Rb  Rb13  1  0.537391  0.750471  0.264610  1
  Rb  Rb14  1  0.027209  0.739310  0.401335  1
  Rb  Rb15  1  0.972791  0.739310  0.901335  1
  Cu  Cu16  1  0.628297  0.424744  0.718290  1
  Cu  Cu17  1  0.371703  0.424744  0.218290  1
  Cu  Cu18  1  0.881929  0.427209  0.815482  1
  Cu  Cu19  1  0.118071  0.427209  0.315482  1
  Cu  Cu20  1  0.390886  0.840555  0.559948  1
  Cu  Cu21  1  0.609114  0.840555  0.059948  1
  Cu  Cu22  1  0.150985  0.856526  0.662846  1
  Cu  Cu23  1  0.849015  0.856526  0.162846  1
  Cu  Cu24  1  0.678971  0.299700  0.797209  1
  Cu  Cu25  1  0.321029  0.299700  0.297209  1
  Cu  Cu26  1  0.084828  0.212499  0.122046  1
  Cu  Cu27  1  0.915172  0.212499  0.622046  1
  Cu  Cu28  1  0.356559  0.017786  0.736323  1
  Cu  Cu29  1  0.643441  0.017786  0.236323  1
  Cu  Cu30  1  0.205289  0.975405  0.585482  1
  Cu  Cu31  1  0.794711  0.975405  0.085482  1
  Cu  Cu32  1  0.226803  0.517481  0.796495  1
  Cu  Cu33  1  0.773197  0.517481  0.296495  1
  Cu  Cu34  1  0.743964  0.758142  0.586634  1
  Cu  Cu35  1  0.256036  0.758142  0.086634  1
  Cl  Cl36  1  0.311895  0.545919  0.683088  1
  Cl  Cl37  1  0.688105  0.545919  0.183088  1
  Cl  Cl38  1  0.121454  0.520724  0.917841  1
  Cl  Cl39  1  0.878546  0.520724  0.417841  1
  Cl  Cl40  1  0.164664  0.891532  0.809166  1
  Cl  Cl41  1  0.835336  0.891532  0.309166  1
  Cl  Cl42  1  0.316055  0.909619  0.454213  1
  Cl  Cl43  1  0.683945  0.909619  0.954213  1
  Cl  Cl44  1  0.721609  0.169006  0.690287  1
  Cl  Cl45  1  0.278391  0.169006  0.190287  1
  Cl  Cl46  1  0.186539  0.104989  0.694356  1
  Cl  Cl47  1  0.813461  0.104989  0.194356  1
  Cl  Cl48  1  0.003440  0.145034  0.487441  1
  Cl  Cl49  1  0.996560  0.145034  0.987441  1
  Cl  Cl50  1  0.460480  0.107556  0.873949  1
  Cl  Cl51  1  0.539520  0.107556  0.373949  1
  Cl  Cl52  1  0.032136  0.343956  0.703456  1
  Cl  Cl53  1  0.967864  0.343956  0.203456  1
  Cl  Cl54  1  0.446838  0.363585  0.786797  1
  Cl  Cl55  1  0.553162  0.363585  0.286797  1
  Cl  Cl56  1  0.646804  0.386661  0.571187  1
  Cl  Cl57  1  0.353196  0.386661  0.071187  1
  Cl  Cl58  1  0.808105  0.361178  0.924822  1
  Cl  Cl59  1  0.191895  0.361178  0.424822  1
  Cl  Cl60  1  0.821663  0.727800  0.701370  1
  Cl  Cl61  1  0.178337  0.727800  0.201370  1
  Cl  Cl62  1  0.631633  0.748259  0.464295  1
  Cl  Cl63  1  0.368367  0.748259  0.964295  1
  Cl  Cl64  1  0.542126  0.918505  0.675737  1
  Cl  Cl65  1  0.457874  0.918505  0.175737  1
  Cl  Cl66  1  0.956363  0.900586  0.588652  1
  Cl  Cl67  1  0.043637  0.900586  0.088652  1
  Cl  Cl68  1  0.252819  0.720681  0.570438  1
  Cl  Cl69  1  0.747181  0.720681  0.070438  1
  Cl  Cl70  1  0.745223  0.550327  0.811017  1
  Cl  Cl71  1  0.254777  0.550327  0.311017  1
