# generated using pymatgen
data_Cs2SbBr6
_symmetry_space_group_name_H-M   'P 1'
_cell_length_a   13.81551223
_cell_length_b   13.81551223
_cell_length_c   13.81551223
_cell_angle_alpha   131.95330284
_cell_angle_beta   131.95330284
_cell_angle_gamma   70.30278997
_symmetry_Int_Tables_number   1
_chemical_formula_structural   Cs2SbBr6
_chemical_formula_sum   'Cs8 Sb4 Br24'
_cell_volume   1429.35750185
_cell_formula_units_Z   4
loop_
 _symmetry_equiv_pos_site_id
 _symmetry_equiv_pos_as_xyz
  1  'x, y, z'
loop_
 _atom_site_type_symbol
 _atom_site_label
 _atom_site_symmetry_multiplicity
 _atom_site_fract_x
 _atom_site_fract_y
 _atom_site_fract_z
 _atom_site_occupancy
  Cs  Cs0  1  0.500000  0.250081  0.750081  1
  Cs  Cs1  1  0.000000  0.749918  0.749918  1
  Cs  Cs2  1  0.749919  0.500000  0.749919  1
  Cs  Cs3  1  0.250080  -0.000000  0.750081  1
  Cs  Cs4  1  0.500000  0.749919  0.249919  1
  Cs  Cs5  1  0.000000  0.250081  0.250081  1
  Cs  Cs6  1  0.250081  0.500000  0.250081  1
  Cs  Cs7  1  0.749920  -0.000000  0.249919  1
  Sb  Sb8  1  0.625000  0.375000  0.250000  1
  Sb  Sb9  1  0.375000  0.625000  0.750000  1
  Sb  Sb10  1  0.125000  0.875000  0.249999  1
  Sb  Sb11  1  0.875000  0.125000  0.750000  1
  Br  Br12  1  0.754444  0.004444  0.750000  1
  Br  Br13  1  0.004444  0.754444  0.249999  1
  Br  Br14  1  0.995555  0.245556  0.750000  1
  Br  Br15  1  0.245556  0.995555  0.250000  1
  Br  Br16  1  0.504691  0.254691  0.250000  1
  Br  Br17  1  0.495309  0.745309  0.750000  1
  Br  Br18  1  0.745309  0.495309  0.250000  1
  Br  Br19  1  0.254692  0.504691  0.750000  1
  Br  Br20  1  0.366444  0.874911  0.491534  1
  Br  Br21  1  0.883379  0.874911  0.008468  1
  Br  Br22  1  0.633558  0.125089  0.508467  1
  Br  Br23  1  0.116623  0.125089  0.991533  1
  Br  Br24  1  0.125090  0.633557  0.008468  1
  Br  Br25  1  0.125090  0.116623  0.491534  1
  Br  Br26  1  0.874911  0.366443  0.991532  1
  Br  Br27  1  0.874911  0.883378  0.508467  1
  Br  Br28  1  0.865839  0.374875  0.490964  1
  Br  Br29  1  0.383912  0.374875  0.009037  1
  Br  Br30  1  0.134161  0.625124  0.509036  1
  Br  Br31  1  0.616089  0.625125  0.990963  1
  Br  Br32  1  0.625126  0.134160  0.009037  1
  Br  Br33  1  0.625125  0.616089  0.490964  1
  Br  Br34  1  0.374875  0.865839  0.990963  1
  Br  Br35  1  0.374876  0.383911  0.509036  1
