# generated using pymatgen
data_Zn(FeO2)2
_symmetry_space_group_name_H-M   'P 1'
_cell_length_a   6.06688826
_cell_length_b   6.06499334
_cell_length_c   18.19320165
_cell_angle_alpha   59.99740087
_cell_angle_beta   59.99699797
_cell_angle_gamma   60.01402374
_symmetry_Int_Tables_number   1
_chemical_formula_structural   Zn(FeO2)2
_chemical_formula_sum   'Zn6 Fe12 O24'
_cell_volume   473.38890764
_cell_formula_units_Z   6
loop_
 _symmetry_equiv_pos_site_id
 _symmetry_equiv_pos_as_xyz
  1  'x, y, z'
loop_
 _atom_site_type_symbol
 _atom_site_label
 _atom_site_symmetry_multiplicity
 _atom_site_fract_x
 _atom_site_fract_y
 _atom_site_fract_z
 _atom_site_occupancy
  Zn  Zn0  1  0.122271  0.122356  0.044334  1
  Zn  Zn1  1  0.121309  0.121451  0.378566  1
  Zn  Zn2  1  0.498559  0.498616  0.334737  1
  Zn  Zn3  1  0.125216  0.125316  0.708033  1
  Zn  Zn4  1  0.499240  0.499223  0.000761  1
  Zn  Zn5  1  0.877107  0.877001  0.622990  1
  Fe  Fe6  1  0.497650  0.497675  0.166188  1
  Fe  Fe7  1  0.497647  0.006128  0.166189  1
  Fe  Fe8  1  0.498778  0.498800  0.499175  1
  Fe  Fe9  1  0.006042  0.497695  0.166196  1
  Fe  Fe10  1  0.498763  0.004955  0.499169  1
  Fe  Fe11  1  0.502289  0.502281  0.664392  1
  Fe  Fe12  1  0.878363  0.878298  0.288371  1
  Fe  Fe13  1  0.499730  0.499742  0.832462  1
  Fe  Fe14  1  0.004891  0.498808  0.499169  1
  Fe  Fe15  1  0.499721  0.003078  0.832461  1
  Fe  Fe16  1  0.003084  0.499735  0.832455  1
  Fe  Fe17  1  0.876349  0.876180  0.957084  1
  O  O18  1  0.254004  0.254348  0.090559  1
  O  O19  1  0.258365  0.258433  0.241610  1
  O  O20  1  0.253965  0.719973  0.090577  1
  O  O21  1  0.719965  0.254252  0.090509  1
  O  O22  1  0.252767  0.252769  0.424757  1
  O  O23  1  0.271373  0.748092  0.244172  1
  O  O24  1  0.258677  0.258737  0.574603  1
  O  O25  1  0.748488  0.271347  0.244090  1
  O  O26  1  0.743960  0.743804  0.089435  1
  O  O27  1  0.252836  0.720155  0.424764  1
  O  O28  1  0.720135  0.252843  0.424766  1
  O  O29  1  0.748444  0.747958  0.244105  1
  O  O30  1  0.260596  0.260569  0.753650  1
  O  O31  1  0.283092  0.738427  0.580014  1
  O  O32  1  0.738469  0.283062  0.580000  1
  O  O33  1  0.259471  0.259508  0.907168  1
  O  O34  1  0.745936  0.745926  0.420768  1
  O  O35  1  0.260594  0.717848  0.753650  1
  O  O36  1  0.717843  0.260598  0.753638  1
  O  O37  1  0.738514  0.738504  0.579990  1
  O  O38  1  0.268046  0.749525  0.910966  1
  O  O39  1  0.749484  0.268038  0.910983  1
  O  O40  1  0.738519  0.738459  0.761500  1
  O  O41  1  0.749450  0.749486  0.910992  1
