# generated using pymatgen
data_Al2FeO4
_symmetry_space_group_name_H-M   'P 1'
_cell_length_a   5.82652289
_cell_length_b   5.82373588
_cell_length_c   17.52531386
_cell_angle_alpha   60.08513334
_cell_angle_beta   60.01193729
_cell_angle_gamma   60.08063399
_symmetry_Int_Tables_number   1
_chemical_formula_structural   Al2FeO4
_chemical_formula_sum   'Al12 Fe6 O24'
_cell_volume   421.06014850
_cell_formula_units_Z   6
loop_
 _symmetry_equiv_pos_site_id
 _symmetry_equiv_pos_as_xyz
  1  'x, y, z'
loop_
 _atom_site_type_symbol
 _atom_site_label
 _atom_site_symmetry_multiplicity
 _atom_site_fract_x
 _atom_site_fract_y
 _atom_site_fract_z
 _atom_site_occupancy
  Al  Al0  1  0.493443  0.497882  0.168324  1
  Al  Al1  1  0.504993  0.999790  0.498666  1
  Al  Al2  1  0.491461  0.004059  0.169542  1
  Al  Al3  1  0.500425  0.499072  0.333469  1
  Al  Al4  1  -0.000275  0.497904  0.168162  1
  Al  Al5  1  0.504726  0.498717  0.498865  1
  Al  Al6  1  0.005714  0.501184  0.831494  1
  Al  Al7  1  0.502243  0.501355  0.664601  1
  Al  Al8  1  1.004149  0.498321  0.499674  1
  Al  Al9  1  0.496756  0.500485  0.832140  1
  Al  Al10  1  0.498738  0.005848  0.831845  1
  Al  Al11  1  0.877326  0.877795  0.955312  1
  Fe  Fe12  1  0.121503  0.126562  0.043274  1
  Fe  Fe13  1  0.498992  0.495956  0.002237  1
  Fe  Fe14  1  0.126074  0.121838  0.376605  1
  Fe  Fe15  1  0.124678  0.126080  0.707867  1
  Fe  Fe16  1  0.878589  0.879760  0.287643  1
  Fe  Fe17  1  0.875054  0.872796  0.625689  1
  O  O18  1  0.242828  0.244658  0.100889  1
  O  O19  1  0.255957  0.266805  0.238285  1
  O  O20  1  0.248333  0.708609  0.096952  1
  O  O21  1  0.706996  0.244320  0.100826  1
  O  O22  1  0.267724  0.262752  0.422955  1
  O  O23  1  0.300698  0.731276  0.245290  1
  O  O24  1  0.728419  0.304120  0.244479  1
  O  O25  1  0.269955  0.261715  0.568002  1
  O  O26  1  0.267923  0.700156  0.423037  1
  O  O27  1  0.747331  0.748850  0.084008  1
  O  O28  1  0.704343  0.265608  0.421525  1
  O  O29  1  0.729414  0.733984  0.244234  1
  O  O30  1  0.267332  0.269852  0.753370  1
  O  O31  1  0.298748  0.735146  0.577308  1
  O  O32  1  0.737959  0.295035  0.577952  1
  O  O33  1  0.264774  0.265664  0.901195  1
  O  O34  1  0.269598  0.703387  0.752544  1
  O  O35  1  0.740361  0.733344  0.431193  1
  O  O36  1  0.702095  0.270064  0.753502  1
  O  O37  1  0.736944  0.732985  0.578287  1
  O  O38  1  0.260706  0.761865  0.905872  1
  O  O39  1  0.757486  0.263133  0.907505  1
  O  O40  1  0.728796  0.728753  0.770406  1
  O  O41  1  0.760690  0.762514  0.904974  1
