# generated using pymatgen
data_NbAg7S6
_symmetry_space_group_name_H-M   'P 1'
_cell_length_a   7.73605086
_cell_length_b   10.97025107
_cell_length_c   14.90613692
_cell_angle_alpha   90.00000000
_cell_angle_beta   90.00000000
_cell_angle_gamma   90.63072312
_symmetry_Int_Tables_number   1
_chemical_formula_structural   NbAg7S6
_chemical_formula_sum   'Nb4 Ag28 S24'
_cell_volume   1264.95383255
_cell_formula_units_Z   4
loop_
 _symmetry_equiv_pos_site_id
 _symmetry_equiv_pos_as_xyz
  1  'x, y, z'
loop_
 _atom_site_type_symbol
 _atom_site_label
 _atom_site_symmetry_multiplicity
 _atom_site_fract_x
 _atom_site_fract_y
 _atom_site_fract_z
 _atom_site_occupancy
  S  S0  1  0.497891  0.987189  0.392747  1
  S  S1  1  0.997891  0.487189  0.607253  1
  S  S2  1  0.964189  0.215937  0.366171  1
  S  S3  1  0.464189  0.715937  0.633829  1
  S  S4  1  0.516830  0.368021  0.250799  1
  S  S5  1  0.016830  0.868021  0.749201  1
  S  S6  1  0.504578  0.385502  0.511311  1
  S  S7  1  0.004578  0.885502  0.488689  1
  S  S8  1  0.740428  0.632642  0.377427  1
  S  S9  1  0.240428  0.132642  0.622573  1
  S  S10  1  0.246170  0.601432  0.378823  1
  S  S11  1  0.746170  0.101432  0.621177  1
  S  S12  1  0.997891  0.487189  0.107253  1
  S  S13  1  0.964189  0.215937  0.866171  1
  S  S14  1  0.497891  0.987189  0.892747  1
  S  S15  1  0.464189  0.715937  0.133829  1
  S  S16  1  0.746170  0.101432  0.121177  1
  S  S17  1  0.246170  0.601432  0.878823  1
  S  S18  1  0.240428  0.132642  0.122573  1
  S  S19  1  0.740428  0.632642  0.877427  1
  S  S20  1  0.004578  0.885502  0.988689  1
  S  S21  1  0.504578  0.385502  0.011311  1
  S  S22  1  0.016830  0.868021  0.249201  1
  S  S23  1  0.516830  0.368021  0.750799  1
  Nb  Nb24  1  0.503283  0.496632  0.877906  1
  Nb  Nb25  1  0.003283  0.996632  0.622094  1
  Nb  Nb26  1  0.503283  0.496632  0.377906  1
  Nb  Nb27  1  0.003283  0.996632  0.122094  1
  Ag  Ag28  1  0.695691  0.589919  0.560319  1
  Ag  Ag29  1  0.195691  0.089919  0.439681  1
  Ag  Ag30  1  0.329127  0.848669  0.521455  1
  Ag  Ag31  1  0.829127  0.348669  0.478545  1
  Ag  Ag32  1  0.720573  0.805187  0.699623  1
  Ag  Ag33  1  0.220573  0.305187  0.300377  1
  Ag  Ag34  1  0.029385  0.718271  0.608269  1
  Ag  Ag35  1  0.529385  0.218271  0.391731  1
  Ag  Ag36  1  0.964943  0.267273  0.659710  1
  Ag  Ag37  1  0.464943  0.767273  0.340290  1
  Ag  Ag38  1  0.317642  0.009912  0.756612  1
  Ag  Ag39  1  0.817642  0.509912  0.243388  1
  Ag  Ag40  1  0.264268  0.545416  0.707497  1
  Ag  Ag41  1  0.764268  0.045416  0.292503  1
  Ag  Ag42  1  0.764268  0.045416  0.792503  1
  Ag  Ag43  1  0.264268  0.545416  0.207497  1
  Ag  Ag44  1  0.817642  0.509912  0.743388  1
  Ag  Ag45  1  0.317642  0.009912  0.256612  1
  Ag  Ag46  1  0.464943  0.767273  0.840290  1
  Ag  Ag47  1  0.964943  0.267273  0.159710  1
  Ag  Ag48  1  0.529385  0.218271  0.891731  1
  Ag  Ag49  1  0.029385  0.718271  0.108269  1
  Ag  Ag50  1  0.220573  0.305187  0.800377  1
  Ag  Ag51  1  0.720573  0.805187  0.199623  1
  Ag  Ag52  1  0.829127  0.348669  0.978545  1
  Ag  Ag53  1  0.329127  0.848669  0.021455  1
  Ag  Ag54  1  0.195691  0.089919  0.939681  1
  Ag  Ag55  1  0.695691  0.589919  0.060319  1
