# generated using pymatgen
data_MgAl2O4
_symmetry_space_group_name_H-M   'P 1'
_cell_length_a   5.76456974
_cell_length_b   5.76343035
_cell_length_c   17.34589799
_cell_angle_alpha   60.10115408
_cell_angle_beta   60.09922504
_cell_angle_gamma   59.99329188
_symmetry_Int_Tables_number   1
_chemical_formula_structural   MgAl2O4
_chemical_formula_sum   'Mg6 Al12 O24'
_cell_volume   408.09725278
_cell_formula_units_Z   6
loop_
 _symmetry_equiv_pos_site_id
 _symmetry_equiv_pos_as_xyz
  1  'x, y, z'
loop_
 _atom_site_type_symbol
 _atom_site_label
 _atom_site_symmetry_multiplicity
 _atom_site_fract_x
 _atom_site_fract_y
 _atom_site_fract_z
 _atom_site_occupancy
  Al  Al0  1  0.496029  0.010411  0.165846  1
  Al  Al1  1  0.005308  0.496735  0.500357  1
  Al  Al2  1  0.496063  0.496004  0.165853  1
  Al  Al3  1  0.496824  0.005396  0.500313  1
  Al  Al4  1  0.496888  0.496772  0.500344  1
  Al  Al5  1  0.010380  0.495989  0.165867  1
  Al  Al6  1  0.502086  0.502200  0.664538  1
  Al  Al7  1  0.498787  0.006584  0.831940  1
  Al  Al8  1  0.881005  0.880920  0.285681  1
  Al  Al9  1  0.498840  0.498856  0.831912  1
  Al  Al10  1  0.006569  0.498791  0.831946  1
  Al  Al11  1  0.876819  0.876783  0.956511  1
  Mg  Mg12  1  0.121634  0.121758  0.045005  1
  Mg  Mg13  1  0.498537  0.498494  0.001471  1
  Mg  Mg14  1  0.121116  0.121290  0.378817  1
  Mg  Mg15  1  0.497455  0.497302  0.335919  1
  Mg  Mg16  1  0.123849  0.123920  0.709460  1
  Mg  Mg17  1  0.877939  0.877883  0.622093  1
  O  O18  1  0.253517  0.253520  0.093513  1
  O  O19  1  0.260048  0.260047  0.239963  1
  O  O20  1  0.253483  0.712457  0.093531  1
  O  O21  1  0.712449  0.253522  0.093508  1
  O  O22  1  0.271754  0.751094  0.242013  1
  O  O23  1  0.249880  0.249844  0.429605  1
  O  O24  1  0.745232  0.745224  0.088119  1
  O  O25  1  0.751147  0.271713  0.241997  1
  O  O26  1  0.259869  0.259909  0.573447  1
  O  O27  1  0.249831  0.711381  0.429644  1
  O  O28  1  0.751102  0.751083  0.242015  1
  O  O29  1  0.711437  0.249848  0.429605  1
  O  O30  1  0.265628  0.265618  0.753594  1
  O  O31  1  0.296097  0.734790  0.578129  1
  O  O32  1  0.749794  0.749763  0.416869  1
  O  O33  1  0.265584  0.708018  0.753602  1
  O  O34  1  0.734748  0.296147  0.578116  1
  O  O35  1  0.262860  0.262860  0.903827  1
  O  O36  1  0.707979  0.265619  0.753588  1
  O  O37  1  0.734726  0.734796  0.578131  1
  O  O38  1  0.263999  0.754812  0.908791  1
  O  O39  1  0.733068  0.733059  0.766945  1
  O  O40  1  0.754837  0.263992  0.908779  1
  O  O41  1  0.754803  0.754796  0.908799  1
