# generated using pymatgen
data_Zn(FeO2)2
_symmetry_space_group_name_H-M   'P 1'
_cell_length_a   6.06548076
_cell_length_b   6.06524210
_cell_length_c   18.18914901
_cell_angle_alpha   59.99237093
_cell_angle_beta   59.99372634
_cell_angle_gamma   60.00265424
_symmetry_Int_Tables_number   1
_chemical_formula_structural   Zn(FeO2)2
_chemical_formula_sum   'Zn6 Fe12 O24'
_cell_volume   473.12274089
_cell_formula_units_Z   6
loop_
 _symmetry_equiv_pos_site_id
 _symmetry_equiv_pos_as_xyz
  1  'x, y, z'
loop_
 _atom_site_type_symbol
 _atom_site_label
 _atom_site_symmetry_multiplicity
 _atom_site_fract_x
 _atom_site_fract_y
 _atom_site_fract_z
 _atom_site_occupancy
  Zn  Zn0  1  0.121288  0.121305  0.045356  1
  Zn  Zn1  1  0.498150  0.498156  0.001847  1
  Zn  Zn2  1  0.124567  0.124578  0.375401  1
  Zn  Zn3  1  0.125704  0.125717  0.707609  1
  Zn  Zn4  1  0.876884  0.876866  0.289803  1
  Zn  Zn5  1  0.875100  0.875084  0.624935  1
  Fe  Fe6  1  0.498203  0.498198  0.166434  1
  Fe  Fe7  1  0.001002  0.500519  0.499328  1
  Fe  Fe8  1  0.501100  0.501091  0.332219  1
  Fe  Fe9  1  0.498200  0.004300  0.166441  1
  Fe  Fe10  1  0.500526  0.500525  0.499321  1
  Fe  Fe11  1  0.004305  0.498195  0.166440  1
  Fe  Fe12  1  0.501299  0.501306  0.665378  1
  Fe  Fe13  1  0.500518  0.001001  0.499327  1
  Fe  Fe14  1  0.499211  0.499222  0.833082  1
  Fe  Fe15  1  0.499207  0.002304  0.833079  1
  Fe  Fe16  1  0.002294  0.499214  0.833084  1
  Fe  Fe17  1  0.876285  0.876271  0.957058  1
  O  O18  1  0.253242  0.253245  0.091023  1
  O  O19  1  0.253275  0.720438  0.091017  1
  O  O20  1  0.258900  0.258896  0.241067  1
  O  O21  1  0.720440  0.253273  0.091020  1
  O  O22  1  0.259982  0.259982  0.420522  1
  O  O23  1  0.283619  0.738526  0.246426  1
  O  O24  1  0.745289  0.745291  0.088054  1
  O  O25  1  0.738532  0.283615  0.246427  1
  O  O26  1  0.260013  0.718418  0.420507  1
  O  O27  1  0.260203  0.260209  0.573143  1
  O  O28  1  0.718427  0.260010  0.420505  1
  O  O29  1  0.738570  0.738561  0.246418  1
  O  O30  1  0.261030  0.261044  0.753193  1
  O  O31  1  0.280617  0.739558  0.580114  1
  O  O32  1  0.739957  0.739946  0.426717  1
  O  O33  1  0.739556  0.280623  0.580113  1
  O  O34  1  0.259658  0.259676  0.907003  1
  O  O35  1  0.261024  0.718335  0.753198  1
  O  O36  1  0.718341  0.261032  0.753196  1
  O  O37  1  0.739560  0.739562  0.580110  1
  O  O38  1  0.268757  0.749510  0.910747  1
  O  O39  1  0.749510  0.268765  0.910746  1
  O  O40  1  0.738156  0.738140  0.761846  1
  O  O41  1  0.749499  0.749495  0.910743  1
