# generated using pymatgen
data_Al2CuO4
_symmetry_space_group_name_H-M   'P 1'
_cell_length_a   5.74969514
_cell_length_b   5.74969490
_cell_length_c   17.33098047
_cell_angle_alpha   60.16847691
_cell_angle_beta   60.16847637
_cell_angle_gamma   60.00710487
_symmetry_Int_Tables_number   1
_chemical_formula_structural   Al2CuO4
_chemical_formula_sum   'Al12 Cu6 O24'
_cell_volume   406.18365689
_cell_formula_units_Z   6
loop_
 _symmetry_equiv_pos_site_id
 _symmetry_equiv_pos_as_xyz
  1  'x, y, z'
loop_
 _atom_site_type_symbol
 _atom_site_label
 _atom_site_symmetry_multiplicity
 _atom_site_fract_x
 _atom_site_fract_y
 _atom_site_fract_z
 _atom_site_occupancy
  Al  Al0  1  0.497048  0.497048  0.167180  1
  Al  Al1  1  0.496990  0.004378  0.167208  1
  Al  Al2  1  0.498134  0.498134  0.500915  1
  Al  Al3  1  0.004378  0.496990  0.167208  1
  Al  Al4  1  0.878683  0.878683  0.287984  1
  Al  Al5  1  0.500558  0.500558  0.666084  1
  Al  Al6  1  0.498052  0.001101  0.500925  1
  Al  Al7  1  0.499434  0.499434  0.832723  1
  Al  Al8  1  0.001101  0.498051  0.500925  1
  Al  Al9  1  0.499456  0.002902  0.832745  1
  Al  Al10  1  0.002902  0.499456  0.832745  1
  Al  Al11  1  0.875515  0.875515  0.957817  1
  Cu  Cu12  1  0.126022  0.126022  0.040618  1
  Cu  Cu13  1  0.497445  0.497445  0.002537  1
  Cu  Cu14  1  0.122790  0.122790  0.377194  1
  Cu  Cu15  1  0.125939  0.125938  0.707379  1
  Cu  Cu16  1  0.495645  0.495645  0.337673  1
  Cu  Cu17  1  0.875544  0.875544  0.624446  1
  O  O18  1  0.253591  0.253591  0.093864  1
  O  O19  1  0.262506  0.262506  0.237510  1
  O  O20  1  0.253665  0.711185  0.093828  1
  O  O21  1  0.711185  0.253665  0.093828  1
  O  O22  1  0.252209  0.252209  0.428061  1
  O  O23  1  0.270094  0.753876  0.240720  1
  O  O24  1  0.742718  0.742718  0.090615  1
  O  O25  1  0.263904  0.263903  0.569512  1
  O  O26  1  0.252242  0.711396  0.428029  1
  O  O27  1  0.753876  0.270094  0.240720  1
  O  O28  1  0.711396  0.252242  0.428029  1
  O  O29  1  0.753904  0.753904  0.240700  1
  O  O30  1  0.299707  0.735777  0.576315  1
  O  O31  1  0.266432  0.266432  0.753730  1
  O  O32  1  0.749313  0.749313  0.417361  1
  O  O33  1  0.735777  0.299707  0.576315  1
  O  O34  1  0.264899  0.264899  0.901759  1
  O  O35  1  0.266308  0.705814  0.753792  1
  O  O36  1  0.705814  0.266308  0.753792  1
  O  O37  1  0.735696  0.735695  0.576355  1
  O  O38  1  0.261156  0.754653  0.909858  1
  O  O39  1  0.728690  0.728690  0.771278  1
  O  O40  1  0.754653  0.261156  0.909858  1
  O  O41  1  0.754631  0.754631  0.909862  1
