# generated using pymatgen
data_In2(Se2O5)3
_symmetry_space_group_name_H-M   'P 1'
_cell_length_a   10.06338135
_cell_length_b   11.51231370
_cell_length_c   13.59151071
_cell_angle_alpha   90.00000000
_cell_angle_beta   90.00000000
_cell_angle_gamma   105.37016031
_symmetry_Int_Tables_number   1
_chemical_formula_structural   In2(Se2O5)3
_chemical_formula_sum   'In8 Se24 O60'
_cell_volume   1518.29627708
_cell_formula_units_Z   4
loop_
 _symmetry_equiv_pos_site_id
 _symmetry_equiv_pos_as_xyz
  1  'x, y, z'
loop_
 _atom_site_type_symbol
 _atom_site_label
 _atom_site_symmetry_multiplicity
 _atom_site_fract_x
 _atom_site_fract_y
 _atom_site_fract_z
 _atom_site_occupancy
  O  O0  1  0.704993  0.027429  0.607864  1
  O  O1  1  0.204993  0.027429  0.392136  1
  O  O2  1  0.847478  0.668784  0.444877  1
  O  O3  1  0.347478  0.668784  0.555123  1
  O  O4  1  0.716351  0.162197  0.137869  1
  O  O5  1  0.216351  0.162197  0.862131  1
  O  O6  1  0.728902  0.644953  0.981815  1
  O  O7  1  0.228902  0.644953  0.018186  1
  O  O8  1  0.554984  0.512163  0.316312  1
  O  O9  1  0.054984  0.512163  0.683688  1
  O  O10  1  0.165158  0.543112  0.228456  1
  O  O11  1  0.665158  0.543112  0.771544  1
  O  O12  1  0.237318  0.727836  0.348283  1
  O  O13  1  0.737318  0.727836  0.651717  1
  O  O14  1  0.553623  0.737053  0.315453  1
  O  O15  1  0.053623  0.737053  0.684547  1
  O  O16  1  0.940014  0.886453  0.547780  1
  O  O17  1  0.440014  0.886453  0.452220  1
  O  O18  1  0.919840  0.789980  0.857297  1
  O  O19  1  0.419840  0.789980  0.142703  1
  O  O20  1  0.098895  0.019268  0.706299  1
  O  O21  1  0.598895  0.019268  0.293701  1
  O  O22  1  0.980601  0.391990  0.105987  1
  O  O23  1  0.310688  0.978105  0.224981  1
  O  O24  1  0.668038  0.443497  0.087717  1
  O  O25  1  0.168039  0.443497  0.912283  1
  O  O26  1  0.496455  0.152641  0.018041  1
  O  O27  1  0.996455  0.152641  0.981959  1
  O  O28  1  0.858393  0.473962  0.940051  1
  O  O29  1  0.358393  0.473962  0.059949  1
  O  O30  1  0.748148  0.218588  0.945474  1
  O  O31  1  0.248148  0.218588  0.054526  1
  O  O32  1  0.253385  0.674738  0.787025  1
  O  O33  1  0.753385  0.674738  0.212975  1
  O  O34  1  0.759388  0.940507  0.165436  1
  O  O35  1  0.259388  0.940507  0.834564  1
  O  O36  1  0.389680  0.883350  0.639096  1
  O  O37  1  0.889680  0.883350  0.360903  1
  O  O38  1  0.560000  0.735262  0.794450  1
  O  O39  1  0.060000  0.735262  0.205550  1
  O  O40  1  0.563527  0.020693  0.788941  1
  O  O41  1  0.063527  0.020693  0.211059  1
  O  O42  1  0.441045  0.832529  0.955193  1
  O  O43  1  0.941045  0.832529  0.044807  1
  O  O44  1  0.833543  0.438640  0.452160  1
  O  O45  1  0.333543  0.438640  0.547840  1
  O  O46  1  0.635148  0.508281  0.541687  1
  O  O47  1  0.135148  0.508281  0.458313  1
  O  O48  1  0.312291  0.170889  0.547688  1
  O  O49  1  0.812291  0.170889  0.452312  1
  O  O50  1  0.004665  0.291278  0.610141  1
  O  O51  1  0.504665  0.291278  0.389859  1
  O  O52  1  0.136262  0.236321  0.417003  1
  O  O53  1  0.636262  0.236321  0.582997  1
  O  O54  1  0.461512  0.347057  0.706291  1
  O  O55  1  0.961512  0.347057  0.293709  1
  O  O56  1  0.950395  0.307937  0.794775  1
  O  O57  1  0.450395  0.307937  0.205225  1
  O  O58  1  0.480601  0.391990  0.894013  1
  O  O59  1  0.810688  0.978105  0.775019  1
  Se  Se60  1  0.311152  0.543449  0.465878  1
  Se  Se61  1  0.811152  0.543449  0.534122  1
  Se  Se62  1  0.657659  0.120413  0.510308  1
  Se  Se63  1  0.157659  0.120413  0.489692  1
  Se  Se64  1  0.644671  0.108679  0.014405  1
  Se  Se65  1  0.144671  0.108679  0.985595  1
  Se  Se66  1  0.223409  0.078019  0.260994  1
  Se  Se67  1  0.723409  0.078019  0.739006  1
  Se  Se68  1  0.815984  0.539360  0.043937  1
  Se  Se69  1  0.315984  0.539360  0.956063  1
  Se  Se70  1  0.813749  0.819622  0.466194  1
  Se  Se71  1  0.313749  0.819622  0.533806  1
  Se  Se72  1  0.252604  0.062787  0.765320  1
  Se  Se73  1  0.752604  0.062787  0.234680  1
  Se  Se74  1  0.817571  0.801871  0.955128  1
  Se  Se75  1  0.317571  0.801871  0.044872  1
  Se  Se76  1  0.578673  0.639442  0.227511  1
  Se  Se77  1  0.078673  0.639442  0.772489  1
  Se  Se78  1  0.083111  0.382952  0.204000  1
  Se  Se79  1  0.583111  0.382952  0.796000  1
  Se  Se80  1  0.581009  0.362523  0.286664  1
  Se  Se81  1  0.081009  0.362523  0.713336  1
  Se  Se82  1  0.085041  0.645063  0.299370  1
  Se  Se83  1  0.585041  0.645063  0.700630  1
  In  In84  1  0.422645  0.861153  0.292602  1
  In  In85  1  0.922645  0.861153  0.707398  1
  In  In86  1  0.463580  0.329031  0.046433  1
  In  In87  1  0.963580  0.329031  0.953567  1
  In  In88  1  0.483344  0.333170  0.544814  1
  In  In89  1  0.983344  0.333170  0.455186  1
  In  In90  1  0.912978  0.844494  0.204330  1
  In  In91  1  0.412978  0.844494  0.795670  1
