# generated using pymatgen
data_TlSb5S8
_symmetry_space_group_name_H-M   'P 1'
_cell_length_a   8.56401512
_cell_length_b   9.18532037
_cell_length_c   19.67596553
_cell_angle_alpha   90.00000000
_cell_angle_beta   90.00000000
_cell_angle_gamma   90.25301560
_symmetry_Int_Tables_number   1
_chemical_formula_structural   TlSb5S8
_chemical_formula_sum   'Tl4 Sb20 S32'
_cell_volume   1547.75976390
_cell_formula_units_Z   4
loop_
 _symmetry_equiv_pos_site_id
 _symmetry_equiv_pos_as_xyz
  1  'x, y, z'
loop_
 _atom_site_type_symbol
 _atom_site_label
 _atom_site_symmetry_multiplicity
 _atom_site_fract_x
 _atom_site_fract_y
 _atom_site_fract_z
 _atom_site_occupancy
  S  S0  1  0.708930  0.536183  0.722487  1
  S  S1  1  0.208930  0.036183  0.277513  1
  S  S2  1  0.405843  0.187571  0.770952  1
  S  S3  1  0.905843  0.687571  0.229048  1
  S  S4  1  0.359210  0.805298  0.802312  1
  S  S5  1  0.859210  0.305298  0.197688  1
  S  S6  1  0.397886  0.004829  0.595599  1
  S  S7  1  0.897886  0.504829  0.404401  1
  S  S8  1  0.670573  0.218320  0.507524  1
  S  S9  1  0.170573  0.718320  0.492476  1
  S  S10  1  0.388578  0.587314  0.982962  1
  S  S11  1  0.888578  0.087314  0.017038  1
  S  S12  1  0.666194  0.316673  0.916409  1
  S  S13  1  0.166194  0.816673  0.083591  1
  S  S14  1  0.433187  0.995741  0.962972  1
  S  S15  1  0.933187  0.495741  0.037028  1
  S  S16  1  0.745154  0.916401  0.707776  1
  S  S17  1  0.245154  0.416401  0.292224  1
  S  S18  1  0.722199  0.729685  0.888175  1
  S  S19  1  0.222199  0.229685  0.111825  1
  S  S20  1  0.034240  0.463356  0.832164  1
  S  S21  1  0.534240  0.963356  0.167836  1
  S  S22  1  0.092790  0.666071  0.659246  1
  S  S23  1  0.592790  0.166071  0.340754  1
  S  S24  1  0.733522  0.714467  0.540410  1
  S  S25  1  0.233522  0.214467  0.459590  1
  S  S26  1  0.047492  0.263012  0.676576  1
  S  S27  1  0.547492  0.763012  0.323424  1
  S  S28  1  0.392550  0.418831  0.602311  1
  S  S29  1  0.892550  0.918831  0.397689  1
  S  S30  1  0.022460  0.052213  0.837063  1
  S  S31  1  0.522460  0.552213  0.162937  1
  Sb  Sb32  1  0.240841  0.455954  0.713835  1
  Sb  Sb33  1  0.740841  0.955954  0.286165  1
  Sb  Sb34  1  0.970727  0.552980  0.541932  1
  Sb  Sb35  1  0.470727  0.052980  0.458068  1
  Sb  Sb36  1  0.877131  0.264936  0.784798  1
  Sb  Sb37  1  0.377131  0.764936  0.215202  1
  Sb  Sb38  1  0.202683  0.015591  0.735501  1
  Sb  Sb39  1  0.702683  0.515591  0.264499  1
  Sb  Sb40  1  0.566036  0.209046  0.630955  1
  Sb  Sb41  1  0.066036  0.709046  0.369045  1
  Sb  Sb42  1  0.522799  0.536784  0.870666  1
  Sb  Sb43  1  0.022799  0.036784  0.129334  1
  Sb  Sb44  1  0.228301  0.808269  0.956229  1
  Sb  Sb45  1  0.728301  0.308269  0.043771  1
  Sb  Sb46  1  0.566041  0.970874  0.845978  1
  Sb  Sb47  1  0.066041  0.470874  0.154022  1
  Sb  Sb48  1  0.904496  0.707965  0.770574  1
  Sb  Sb49  1  0.404496  0.207965  0.229426  1
  Sb  Sb50  1  0.576835  0.734673  0.649687  1
  Sb  Sb51  1  0.076835  0.234673  0.350313  1
  Tl  Tl52  1  0.992310  0.001609  0.549190  1
  Tl  Tl53  1  0.492310  0.501609  0.450810  1
  Tl  Tl54  1  0.191590  0.273054  0.947857  1
  Tl  Tl55  1  0.691590  0.773054  0.052143  1
