# generated using pymatgen
data_Cs2SiF6
_symmetry_space_group_name_H-M   'P 1'
_cell_length_a   6.41455133
_cell_length_b   6.41455111
_cell_length_c   6.41455104
_cell_angle_alpha   60.00000037
_cell_angle_beta   60.00000150
_cell_angle_gamma   59.99999984
_symmetry_Int_Tables_number   1
_chemical_formula_structural   Cs2SiF6
_chemical_formula_sum   'Cs2 Si1 F6'
_cell_volume   186.63101918
_cell_formula_units_Z   1
loop_
 _symmetry_equiv_pos_site_id
 _symmetry_equiv_pos_as_xyz
  1  'x, y, z'
loop_
 _atom_site_type_symbol
 _atom_site_label
 _atom_site_symmetry_multiplicity
 _atom_site_fract_x
 _atom_site_fract_y
 _atom_site_fract_z
 _atom_site_occupancy
  Cs  Cs0  1  0.750000  0.750000  0.750000  1
  Cs  Cs1  1  0.250000  0.250000  0.250000  1
  Si  Si2  1  0.000000  0.000000  0.000000  1
  F  F3  1  0.190277  0.809723  0.809723  1
  F  F4  1  0.190277  0.809723  0.190277  1
  F  F5  1  0.809723  0.190277  0.809723  1
  F  F6  1  0.809723  0.190277  0.190277  1
  F  F7  1  0.809723  0.809723  0.190277  1
  F  F8  1  0.190277  0.190277  0.809723  1
