# generated using pymatgen
data_SrSi7N10
_symmetry_space_group_name_H-M   'P 1'
_cell_length_a   6.78127040
_cell_length_b   6.88706807
_cell_length_c   9.68563218
_cell_angle_alpha   106.07127041
_cell_angle_beta   90.00000000
_cell_angle_gamma   90.00000000
_symmetry_Int_Tables_number   1
_chemical_formula_structural   SrSi7N10
_chemical_formula_sum   'Sr2 Si14 N20'
_cell_volume   434.67011055
_cell_formula_units_Z   2
loop_
 _symmetry_equiv_pos_site_id
 _symmetry_equiv_pos_as_xyz
  1  'x, y, z'
loop_
 _atom_site_type_symbol
 _atom_site_label
 _atom_site_symmetry_multiplicity
 _atom_site_fract_x
 _atom_site_fract_y
 _atom_site_fract_z
 _atom_site_occupancy
  Sr  Sr0  1  0.949817  0.044416  0.331857  1
  Sr  Sr1  1  0.050183  0.044416  0.831857  1
  Si  Si2  1  0.025929  0.460071  0.171851  1
  Si  Si3  1  0.394343  0.890993  0.426599  1
  Si  Si4  1  0.380852  0.703872  0.116128  1
  Si  Si5  1  0.026540  0.645889  0.483268  1
  Si  Si6  1  0.623789  0.151010  0.690885  1
  Si  Si7  1  0.370893  0.516410  0.812305  1
  Si  Si8  1  0.634957  0.334385  0.006964  1
  Si  Si9  1  0.619148  0.703872  0.616128  1
  Si  Si10  1  0.365043  0.334385  0.506964  1
  Si  Si11  1  0.629107  0.516410  0.312305  1
  Si  Si12  1  0.605657  0.890993  0.926599  1
  Si  Si13  1  0.974071  0.460071  0.671851  1
  Si  Si14  1  0.376211  0.151010  0.190885  1
  Si  Si15  1  0.973460  0.645889  0.983268  1
  N  N16  1  0.164377  0.845410  0.478525  1
  N  N17  1  0.129753  0.680645  0.135153  1
  N  N18  1  0.382678  0.112563  0.367193  1
  N  N19  1  0.868526  0.432055  0.022983  1
  N  N20  1  0.422937  0.921362  0.061911  1
  N  N21  1  0.155174  0.251867  0.170017  1
  N  N22  1  0.498139  0.713803  0.275945  1
  N  N23  1  0.584203  0.296493  0.175451  1
  N  N24  1  0.577063  0.921362  0.561911  1
  N  N25  1  0.844826  0.251867  0.670017  1
  N  N26  1  0.501861  0.713803  0.775945  1
  N  N27  1  0.617322  0.112563  0.867193  1
  N  N28  1  0.835623  0.845410  0.978525  1
  N  N29  1  0.882322  0.554597  0.327504  1
  N  N30  1  0.870247  0.680645  0.635153  1
  N  N31  1  0.117678  0.554597  0.827504  1
  N  N32  1  0.537787  0.501860  0.476157  1
  N  N33  1  0.415797  0.296493  0.675451  1
  N  N34  1  0.462213  0.501860  0.976157  1
  N  N35  1  0.131474  0.432055  0.522983  1
