# generated using pymatgen
data_KIO3
_symmetry_space_group_name_H-M   'P 1'
_cell_length_a   7.27506807
_cell_length_b   7.27506804
_cell_length_c   7.27506845
_cell_angle_alpha   109.47121949
_cell_angle_beta   109.47121938
_cell_angle_gamma   109.47122193
_symmetry_Int_Tables_number   1
_chemical_formula_structural   KIO3
_chemical_formula_sum   'K4 I4 O12'
_cell_volume   296.40758937
_cell_formula_units_Z   4
loop_
 _symmetry_equiv_pos_site_id
 _symmetry_equiv_pos_as_xyz
  1  'x, y, z'
loop_
 _atom_site_type_symbol
 _atom_site_label
 _atom_site_symmetry_multiplicity
 _atom_site_fract_x
 _atom_site_fract_y
 _atom_site_fract_z
 _atom_site_occupancy
  K  K0  1  0.500000  0.500000  0.000000  1
  K  K1  1  0.500000  0.000000  0.500000  1
  K  K2  1  0.000000  0.000000  0.000000  1
  K  K3  1  0.000000  0.500000  0.500000  1
  I  I4  1  0.000000  0.500000  0.000000  1
  I  I5  1  0.000000  0.000000  0.500000  1
  I  I6  1  0.500000  0.500000  0.500000  1
  I  I7  1  0.500000  0.000000  0.000000  1
  O  O8  1  0.000000  0.250000  0.750000  1
  O  O9  1  0.500000  0.750000  0.750000  1
  O  O10  1  0.250000  0.750000  0.000000  1
  O  O11  1  0.750000  0.500000  0.750000  1
  O  O12  1  0.250000  0.000000  0.750000  1
  O  O13  1  0.750000  0.250000  0.000000  1
  O  O14  1  0.250000  0.500000  0.250000  1
  O  O15  1  0.250000  0.250000  0.500000  1
  O  O16  1  0.500000  0.250000  0.250000  1
  O  O17  1  0.000000  0.750000  0.250000  1
  O  O18  1  0.750000  0.000000  0.250000  1
  O  O19  1  0.750000  0.750000  0.500000  1
