# generated using pymatgen
data_U3Si11Pt23
_symmetry_space_group_name_H-M   'P 1'
_cell_length_a   12.14517173
_cell_length_b   12.14517156
_cell_length_c   12.14517124
_cell_angle_alpha   60.00000088
_cell_angle_beta   60.00000133
_cell_angle_gamma   60.00000043
_symmetry_Int_Tables_number   1
_chemical_formula_structural   U3Si11Pt23
_chemical_formula_sum   'U6 Si22 Pt46'
_cell_volume   1266.76474237
_cell_formula_units_Z   2
loop_
 _symmetry_equiv_pos_site_id
 _symmetry_equiv_pos_as_xyz
  1  'x, y, z'
loop_
 _atom_site_type_symbol
 _atom_site_label
 _atom_site_symmetry_multiplicity
 _atom_site_fract_x
 _atom_site_fract_y
 _atom_site_fract_z
 _atom_site_occupancy
  U  U0  1  0.615815  0.384185  0.384185  1
  U  U1  1  0.615815  0.384185  0.615815  1
  U  U2  1  0.615815  0.615815  0.384185  1
  U  U3  1  0.384185  0.615815  0.615815  1
  U  U4  1  0.384185  0.615815  0.384185  1
  U  U5  1  0.384185  0.384185  0.615815  1
  Si  Si6  1  0.382842  0.382842  0.382842  1
  Si  Si7  1  0.168144  0.168144  0.831856  1
  Si  Si8  1  0.503116  0.165628  0.165628  1
  Si  Si9  1  0.168144  0.831856  0.831856  1
  Si  Si10  1  0.617158  0.617158  0.148526  1
  Si  Si11  1  0.165628  0.165628  0.165628  1
  Si  Si12  1  0.834372  0.834372  0.496884  1
  Si  Si13  1  0.834372  0.834372  0.834372  1
  Si  Si14  1  0.382842  0.382842  0.851474  1
  Si  Si15  1  0.148526  0.617158  0.617158  1
  Si  Si16  1  0.851474  0.382842  0.382842  1
  Si  Si17  1  0.165628  0.165628  0.503116  1
  Si  Si18  1  0.382842  0.851474  0.382842  1
  Si  Si19  1  0.834372  0.496884  0.834372  1
  Si  Si20  1  0.831856  0.168144  0.831856  1
  Si  Si21  1  0.168144  0.831856  0.168144  1
  Si  Si22  1  0.617158  0.148526  0.617158  1
  Si  Si23  1  0.165628  0.503116  0.165628  1
  Si  Si24  1  0.496884  0.834372  0.834372  1
  Si  Si25  1  0.617158  0.617158  0.617158  1
  Si  Si26  1  0.831856  0.831856  0.168144  1
  Si  Si27  1  0.831856  0.168144  0.168144  1
  Pt  Pt28  1  0.582053  0.249456  0.919033  1
  Pt  Pt29  1  0.918433  0.693856  0.693856  1
  Pt  Pt30  1  0.582053  0.919033  0.249456  1
  Pt  Pt31  1  0.693856  0.693856  0.918433  1
  Pt  Pt32  1  0.417947  0.750544  0.750544  1
  Pt  Pt33  1  0.000000  0.500000  -0.000000  1
  Pt  Pt34  1  0.080967  0.417947  0.750544  1
  Pt  Pt35  1  0.082990  0.082990  0.082990  1
  Pt  Pt36  1  0.919033  0.249456  0.582053  1
  Pt  Pt37  1  0.248968  0.917010  0.917010  1
  Pt  Pt38  1  0.082990  0.751032  0.082990  1
  Pt  Pt39  1  0.750544  0.417947  0.750544  1
  Pt  Pt40  1  0.750544  0.750544  0.080967  1
  Pt  Pt41  1  0.417947  0.750544  0.080967  1
  Pt  Pt42  1  0.693856  0.918433  0.693856  1
  Pt  Pt43  1  0.750544  0.080967  0.750544  1
  Pt  Pt44  1  0.693856  0.693856  0.693856  1
  Pt  Pt45  1  0.750544  0.080967  0.417947  1
  Pt  Pt46  1  0.919033  0.249456  0.249456  1
  Pt  Pt47  1  0.249456  0.249456  0.582053  1
  Pt  Pt48  1  0.750544  0.750544  0.417947  1
  Pt  Pt49  1  0.917010  0.248968  0.917010  1
  Pt  Pt50  1  0.249456  0.582053  0.249456  1
  Pt  Pt51  1  0.417947  0.080967  0.750544  1
  Pt  Pt52  1  0.249456  0.919033  0.582053  1
  Pt  Pt53  1  0.919033  0.582053  0.249456  1
  Pt  Pt54  1  0.306144  0.081567  0.306144  1
  Pt  Pt55  1  0.306144  0.306144  0.306144  1
  Pt  Pt56  1  0.249456  0.919033  0.249456  1
  Pt  Pt57  1  0.917010  0.917010  0.917010  1
  Pt  Pt58  1  0.751032  0.082990  0.082990  1
  Pt  Pt59  1  0.500000  -0.000000  -0.000000  1
  Pt  Pt60  1  0.249456  0.582053  0.919033  1
  Pt  Pt61  1  0.917010  0.917010  0.248968  1
  Pt  Pt62  1  0.249456  0.249456  0.919033  1
  Pt  Pt63  1  0.080967  0.750544  0.417947  1
  Pt  Pt64  1  0.500000  -0.000000  0.500000  1
  Pt  Pt65  1  0.306144  0.306144  0.081567  1
  Pt  Pt66  1  0.080967  0.750544  0.750544  1
  Pt  Pt67  1  0.081567  0.306144  0.306144  1
  Pt  Pt68  1  0.582053  0.249456  0.249456  1
  Pt  Pt69  1  0.000000  -0.000000  0.500000  1
  Pt  Pt70  1  0.750544  0.417947  0.080967  1
  Pt  Pt71  1  0.082990  0.082990  0.751032  1
  Pt  Pt72  1  0.000000  0.500000  0.500000  1
  Pt  Pt73  1  0.500000  0.500000  -0.000000  1
