# generated using pymatgen
data_Mg6Si7Ni16
_symmetry_space_group_name_H-M   'P 1'
_cell_length_a   7.98776189
_cell_length_b   7.98776246
_cell_length_c   7.98776188
_cell_angle_alpha   59.99999826
_cell_angle_beta   59.99999590
_cell_angle_gamma   60.00000202
_symmetry_Int_Tables_number   1
_chemical_formula_structural   Mg6Si7Ni16
_chemical_formula_sum   'Mg6 Si7 Ni16'
_cell_volume   360.37972636
_cell_formula_units_Z   1
loop_
 _symmetry_equiv_pos_site_id
 _symmetry_equiv_pos_as_xyz
  1  'x, y, z'
loop_
 _atom_site_type_symbol
 _atom_site_label
 _atom_site_symmetry_multiplicity
 _atom_site_fract_x
 _atom_site_fract_y
 _atom_site_fract_z
 _atom_site_occupancy
  Mg  Mg0  1  0.203947  0.796053  0.203947  1
  Mg  Mg1  1  0.796053  0.203947  0.203947  1
  Mg  Mg2  1  0.796053  0.796053  0.203947  1
  Mg  Mg3  1  0.203947  0.796053  0.796053  1
  Mg  Mg4  1  0.203947  0.203947  0.796053  1
  Mg  Mg5  1  0.796053  0.203947  0.796053  1
  Si  Si6  1  0.500000  0.000000  0.500000  1
  Si  Si7  1  0.000000  0.500000  0.000000  1
  Si  Si8  1  0.500000  0.500000  0.500000  1
  Si  Si9  1  0.500000  0.000000  0.000000  1
  Si  Si10  1  0.000000  0.000000  0.500000  1
  Si  Si11  1  0.000000  0.500000  0.500000  1
  Si  Si12  1  0.500000  0.500000  0.000000  1
  Ni  Ni13  1  0.496354  0.167882  0.167882  1
  Ni  Ni14  1  0.853659  0.382114  0.382114  1
  Ni  Ni15  1  0.617886  0.617886  0.617886  1
  Ni  Ni16  1  0.167882  0.496354  0.167882  1
  Ni  Ni17  1  0.146341  0.617886  0.617886  1
  Ni  Ni18  1  0.617886  0.146341  0.617886  1
  Ni  Ni19  1  0.503646  0.832118  0.832118  1
  Ni  Ni20  1  0.617886  0.617886  0.146341  1
  Ni  Ni21  1  0.382114  0.382114  0.382114  1
  Ni  Ni22  1  0.167882  0.167882  0.167882  1
  Ni  Ni23  1  0.832118  0.832118  0.832118  1
  Ni  Ni24  1  0.832118  0.503646  0.832118  1
  Ni  Ni25  1  0.382114  0.853659  0.382114  1
  Ni  Ni26  1  0.832118  0.832118  0.503646  1
  Ni  Ni27  1  0.382114  0.382114  0.853659  1
  Ni  Ni28  1  0.167882  0.167882  0.496354  1
