# generated using pymatgen
data_BaBiO3
_symmetry_space_group_name_H-M   'P 1'
_cell_length_a   6.26232858
_cell_length_b   6.26226731
_cell_length_c   6.26227114
_cell_angle_alpha   60.00000867
_cell_angle_beta   60.00030382
_cell_angle_gamma   60.00021674
_symmetry_Int_Tables_number   1
_chemical_formula_structural   BaBiO3
_chemical_formula_sum   'Ba2 Bi2 O6'
_cell_volume   173.65450718
_cell_formula_units_Z   2
loop_
 _symmetry_equiv_pos_site_id
 _symmetry_equiv_pos_as_xyz
  1  'x, y, z'
loop_
 _atom_site_type_symbol
 _atom_site_label
 _atom_site_symmetry_multiplicity
 _atom_site_fract_x
 _atom_site_fract_y
 _atom_site_fract_z
 _atom_site_occupancy
  O  O0  1  0.254442  0.745542  0.254481  1
  O  O1  1  0.254445  0.254478  0.745539  1
  O  O2  1  0.745559  0.254458  0.254464  1
  Ba  Ba3  1  0.750005  0.749998  0.749999  1
  O  O4  1  0.745555  0.745522  0.254461  1
  Ba  Ba5  1  0.249993  0.250002  0.250002  1
  O  O6  1  0.745559  0.254458  0.745519  1
  O  O7  1  0.254442  0.745542  0.745535  1
  Bi  Bi8  1  0.500000  0.500000  0.500000  1
  Bi  Bi9  1  -0.000000  0.000000  1.000000  1
