# generated using pymatgen
data_Sb3Au3F22
_symmetry_space_group_name_H-M   'P 1'
_cell_length_a   10.44591818
_cell_length_b   10.96937229
_cell_length_c   15.83429729
_cell_angle_alpha   90.00000000
_cell_angle_beta   94.32949578
_cell_angle_gamma   90.00000000
_symmetry_Int_Tables_number   1
_chemical_formula_structural   Sb3Au3F22
_chemical_formula_sum   'Sb12 Au12 F88'
_cell_volume   1809.19807709
_cell_formula_units_Z   4
loop_
 _symmetry_equiv_pos_site_id
 _symmetry_equiv_pos_as_xyz
  1  'x, y, z'
loop_
 _atom_site_type_symbol
 _atom_site_label
 _atom_site_symmetry_multiplicity
 _atom_site_fract_x
 _atom_site_fract_y
 _atom_site_fract_z
 _atom_site_occupancy
  Sb  Sb0  1  0.898228  0.875078  0.031173  1
  Sb  Sb1  1  0.900175  0.624264  0.529061  1
  Sb  Sb2  1  0.898228  0.124922  0.531173  1
  Sb  Sb3  1  0.636718  0.367844  0.729874  1
  Sb  Sb4  1  0.350475  0.622931  0.943957  1
  Sb  Sb5  1  0.635593  0.125443  0.235273  1
  Sb  Sb6  1  0.356918  0.130700  0.935095  1
  Sb  Sb7  1  0.900175  0.375736  0.029061  1
  Sb  Sb8  1  0.636718  0.632156  0.229874  1
  Sb  Sb9  1  0.350475  0.377069  0.443957  1
  Sb  Sb10  1  0.635593  0.874557  0.735273  1
  Sb  Sb11  1  0.356918  0.869300  0.435095  1
  Au  Au12  1  0.949601  0.116553  0.866359  1
  Au  Au13  1  0.370693  0.624655  0.688738  1
  Au  Au14  1  0.130341  0.368318  0.735306  1
  Au  Au15  1  0.130341  0.631682  0.235306  1
  Au  Au16  1  0.137400  0.130563  0.236282  1
  Au  Au17  1  0.946203  0.382581  0.365918  1
  Au  Au18  1  0.310124  0.125071  0.600564  1
  Au  Au19  1  0.949601  0.883447  0.366359  1
  Au  Au20  1  0.370693  0.375345  0.188738  1
  Au  Au21  1  0.137400  0.869437  0.736282  1
  Au  Au22  1  0.946203  0.617419  0.865918  1
  Au  Au23  1  0.310124  0.874929  0.100564  1
  F  F24  1  0.054015  0.712482  0.783510  1
  F  F25  1  0.463839  0.468006  0.728036  1
  F  F26  1  0.054015  0.287518  0.283510  1
  F  F27  1  0.884625  0.785800  0.919740  1
  F  F28  1  0.884625  0.214200  0.419740  1
  F  F29  1  0.790679  0.275203  0.733165  1
  F  F30  1  0.725788  0.985845  0.279687  1
  F  F31  1  0.607586  0.809971  0.843178  1
  F  F32  1  0.650202  0.083756  0.120376  1
  F  F33  1  0.725788  0.014155  0.779687  1
  F  F34  1  0.470483  0.949745  0.730060  1
  F  F35  1  0.371345  0.963639  0.549746  1
  F  F36  1  0.539810  0.717694  0.684504  1
  F  F37  1  0.203196  0.468409  0.187396  1
  F  F38  1  0.786136  0.776223  0.733504  1
  F  F39  1  0.963214  0.769480  0.582701  1
  F  F40  1  0.916827  0.526938  0.628052  1
  F  F41  1  0.470483  0.050255  0.230060  1
  F  F42  1  0.720427  0.513943  0.769922  1
  F  F43  1  0.527826  0.918014  0.423078  1
  F  F44  1  0.293785  0.980869  0.886138  1
  F  F45  1  0.183388  0.165197  0.960197  1
  F  F46  1  0.183388  0.834803  0.460197  1
  F  F47  1  0.068017  0.919218  0.005182  1
  F  F48  1  0.839979  0.481698  0.455235  1
  F  F49  1  0.720427  0.486057  0.269922  1
  F  F50  1  0.786136  0.223776  0.233504  1
  F  F51  1  0.250400  0.282001  0.652787  1
  F  F52  1  0.334896  0.217542  0.831038  1
  F  F53  1  0.524741  0.591970  0.929433  1
  F  F54  1  0.011350  0.959691  0.810218  1
  F  F55  1  0.293785  0.019131  0.386138  1
  F  F56  1  0.411111  0.266399  0.003225  1
  F  F57  1  0.539810  0.282306  0.184504  1
  F  F58  1  0.844994  0.019540  0.958876  1
  F  F59  1  0.524741  0.408030  0.429433  1
  F  F60  1  0.068017  0.080782  0.505182  1
  F  F61  1  0.339370  0.273518  0.345589  1
  F  F62  1  0.048932  0.210217  0.778285  1
  F  F63  1  0.790679  0.724797  0.233165  1
  F  F64  1  0.250400  0.717999  0.152787  1
  F  F65  1  0.180860  0.323670  0.464625  1
  F  F66  1  0.463839  0.531994  0.228036  1
  F  F67  1  0.006507  0.540552  0.310722  1
  F  F68  1  0.371345  0.036361  0.049746  1
  F  F69  1  0.963214  0.230520  0.082701  1
  F  F70  1  0.723427  0.159431  0.539356  1
  F  F71  1  0.286546  0.489734  0.875769  1
  F  F72  1  0.048932  0.789783  0.278285  1
  F  F73  1  0.066203  0.421429  -0.000864  1
  F  F74  1  0.411111  0.733601  0.503225  1
  F  F75  1  0.839979  0.518302  0.955235  1
  F  F76  1  0.960180  0.271618  0.583282  1
  F  F77  1  0.260620  0.772977  0.659259  1
  F  F78  1  0.882743  0.282553  0.918408  1
  F  F79  1  0.960180  0.728382  0.083282  1
  F  F80  1  0.409065  0.774013  0.013289  1
  F  F81  1  0.844994  0.980460  0.458876  1
  F  F82  1  0.601230  0.330666  0.842480  1
  F  F83  1  0.357913  0.467398  0.546672  1
  F  F84  1  0.260620  0.227023  0.159259  1
  F  F85  1  0.529789  0.764761  0.190247  1
  F  F86  1  0.723427  0.840569  0.039356  1
  F  F87  1  0.725830  0.340586  0.038385  1
  F  F88  1  0.725830  0.659414  0.538385  1
  F  F89  1  0.203196  0.531591  0.687396  1
  F  F90  1  0.607586  0.190029  0.343178  1
  F  F91  1  0.334896  0.782458  0.331038  1
  F  F92  1  0.915471  0.030347  0.631278  1
  F  F93  1  0.601230  0.669334  0.342480  1
  F  F94  1  0.006507  0.459448  0.810722  1
  F  F95  1  0.916827  0.473062  0.128052  1
  F  F96  1  0.529789  0.235239  0.690247  1
  F  F97  1  0.357913  0.532602  0.046672  1
  F  F98  1  0.011350  0.040309  0.310218  1
  F  F99  1  0.527826  0.081986  0.923078  1
  F  F100  1  0.409065  0.225987  0.513289  1
  F  F101  1  0.066203  0.578571  0.499136  1
  F  F102  1  0.210632  0.968786  0.185086  1
  F  F103  1  0.180860  0.676330  0.964625  1
  F  F104  1  0.915471  0.969653  0.131278  1
  F  F105  1  0.286546  0.510266  0.375769  1
  F  F106  1  0.650202  0.916244  0.620376  1
  F  F107  1  0.644278  0.578373  0.116788  1
  F  F108  1  0.644278  0.421627  0.616788  1
  F  F109  1  0.882743  0.717447  0.418408  1
  F  F110  1  0.339370  0.726482  0.845589  1
  F  F111  1  0.210632  0.031214  0.685086  1
