# generated using pymatgen
data_Cd(GaO2)2
_symmetry_space_group_name_H-M   'P 1'
_cell_length_a   6.17552251
_cell_length_b   6.17552315
_cell_length_c   37.22322593
_cell_angle_alpha   60.15104086
_cell_angle_beta   60.15103740
_cell_angle_gamma   59.99999758
_symmetry_Int_Tables_number   1
_chemical_formula_structural   Cd(GaO2)2
_chemical_formula_sum   'Cd12 Ga24 O48'
_cell_volume   1006.08384881
_cell_formula_units_Z   12
loop_
 _symmetry_equiv_pos_site_id
 _symmetry_equiv_pos_as_xyz
  1  'x, y, z'
loop_
 _atom_site_type_symbol
 _atom_site_label
 _atom_site_symmetry_multiplicity
 _atom_site_fract_x
 _atom_site_fract_y
 _atom_site_fract_z
 _atom_site_occupancy
  Cd  Cd0  1  0.247121  0.247121  0.043106  1
  Cd  Cd1  1  0.628645  0.628645  0.019010  1
  Cd  Cd2  1  0.246172  0.246172  0.210247  1
  Cd  Cd3  1  0.621429  0.621429  0.189285  1
  Cd  Cd4  1  0.246200  0.246200  0.376900  1
  Cd  Cd5  1  -0.000103  -0.000103  0.500052  1
  Cd  Cd6  1  0.004229  0.004229  0.331219  1
  Cd  Cd7  1  0.251235  0.251235  0.541049  1
  Cd  Cd8  1  0.251271  0.251271  0.707697  1
  Cd  Cd9  1  0.999728  0.999728  0.666803  1
  Cd  Cd10  1  0.249903  0.249903  0.875048  1
  Cd  Cd11  1  0.997397  0.997397  0.834635  1
  Ga  Ga12  1  0.003972  0.003972  0.998014  1
  Ga  Ga13  1  0.134622  0.620217  0.104158  1
  Ga  Ga14  1  0.620217  0.134622  0.104158  1
  Ga  Ga15  1  0.007175  0.007175  0.163079  1
  Ga  Ga16  1  0.620217  0.620217  0.104158  1
  Ga  Ga17  1  0.126061  0.617926  0.273014  1
  Ga  Ga18  1  0.617926  0.126061  0.273014  1
  Ga  Ga19  1  0.617926  0.617926  0.273014  1
  Ga  Ga20  1  0.124978  0.625436  0.437358  1
  Ga  Ga21  1  0.625436  0.124978  0.437358  1
  Ga  Ga22  1  0.623730  0.623730  0.354802  1
  Ga  Ga23  1  0.625436  0.625436  0.437358  1
  Ga  Ga24  1  0.125690  0.625309  0.603949  1
  Ga  Ga25  1  0.625492  0.625492  0.520587  1
  Ga  Ga26  1  0.625309  0.125690  0.603949  1
  Ga  Ga27  1  0.625309  0.625309  0.603949  1
  Ga  Ga28  1  0.126995  0.625183  0.770439  1
  Ga  Ga29  1  0.625860  0.625860  0.687070  1
  Ga  Ga30  1  0.625183  0.126995  0.770439  1
  Ga  Ga31  1  0.625183  0.625183  0.770439  1
  Ga  Ga32  1  0.135819  0.623516  0.936192  1
  Ga  Ga33  1  0.623516  0.135819  0.936192  1
  Ga  Ga34  1  0.628456  0.628456  0.852439  1
  Ga  Ga35  1  0.623516  0.623516  0.936192  1
  O  O36  1  0.376163  0.376163  0.070423  1
  O  O37  1  0.376163  0.825139  0.070423  1
  O  O38  1  0.387950  0.387950  0.139358  1
  O  O39  1  0.825139  0.376163  0.070423  1
  O  O40  1  0.398006  0.883415  0.139194  1
  O  O41  1  0.366166  0.366166  0.240674  1
  O  O42  1  0.873970  0.873970  0.063015  1
  O  O43  1  0.883415  0.398006  0.139194  1
  O  O44  1  0.366166  0.823626  0.240674  1
  O  O45  1  0.385867  0.385867  0.307066  1
  O  O46  1  0.883415  0.883415  0.139194  1
  O  O47  1  0.823626  0.366166  0.240674  1
  O  O48  1  0.435770  0.852564  0.309850  1
  O  O49  1  0.391998  0.391998  0.399615  1
  O  O50  1  0.880178  0.880178  0.226578  1
  O  O51  1  0.391998  0.818311  0.399615  1
  O  O52  1  0.852564  0.435770  0.309850  1
  O  O53  1  0.392620  0.392620  0.470357  1
  O  O54  1  0.852564  0.852564  0.309850  1
  O  O55  1  0.818311  0.391998  0.399615  1
  O  O56  1  0.429456  0.856440  0.476278  1
  O  O57  1  0.392546  0.392546  0.565711  1
  O  O58  1  0.858423  0.858423  0.404122  1
  O  O59  1  0.392546  0.820641  0.565711  1
  O  O60  1  0.856440  0.429456  0.476278  1
  O  O61  1  0.393177  0.393177  0.636744  1
  O  O62  1  0.856440  0.856440  0.476278  1
  O  O63  1  0.820641  0.392546  0.565711  1
  O  O64  1  0.392998  0.392998  0.732188  1
  O  O65  1  0.428967  0.856577  0.642980  1
  O  O66  1  0.856615  0.856615  0.571693  1
  O  O67  1  0.856577  0.428967  0.642980  1
  O  O68  1  0.392998  0.820876  0.732188  1
  O  O69  1  0.392992  0.392992  0.803504  1
  O  O70  1  0.856577  0.856577  0.642980  1
  O  O71  1  0.820876  0.392998  0.732188  1
  O  O72  1  0.398336  0.398336  0.897041  1
  O  O73  1  0.427446  0.858515  0.809254  1
  O  O74  1  0.856360  0.856360  0.738487  1
  O  O75  1  0.858515  0.427446  0.809254  1
  O  O76  1  0.393046  0.393046  0.970144  1
  O  O77  1  0.398336  0.821081  0.897041  1
  O  O78  1  0.858515  0.858515  0.809254  1
  O  O79  1  0.821081  0.398336  0.897041  1
  O  O80  1  0.384744  0.892773  0.971618  1
  O  O81  1  0.892773  0.384744  0.971618  1
  O  O82  1  0.850505  0.850505  0.908080  1
  O  O83  1  0.892773  0.892773  0.971618  1
