# generated using pymatgen
data_P4N6O
_symmetry_space_group_name_H-M   'P 1'
_cell_length_a   6.13371322
_cell_length_b   20.56395634
_cell_length_c   9.75466975
_cell_angle_alpha   45.32009646
_cell_angle_beta   90.00000000
_cell_angle_gamma   90.00000000
_symmetry_Int_Tables_number   1
_chemical_formula_structural   P4N6O
_chemical_formula_sum   'P24 N36 O6'
_cell_volume   874.86390133
_cell_formula_units_Z   6
loop_
 _symmetry_equiv_pos_site_id
 _symmetry_equiv_pos_as_xyz
  1  'x, y, z'
loop_
 _atom_site_type_symbol
 _atom_site_label
 _atom_site_symmetry_multiplicity
 _atom_site_fract_x
 _atom_site_fract_y
 _atom_site_fract_z
 _atom_site_occupancy
  N  N0  1  0.009726  0.989838  0.006346  1
  N  N1  1  0.114996  0.121270  0.629425  1
  N  N2  1  0.100164  0.454697  0.637108  1
  N  N3  1  0.110324  0.789955  0.635363  1
  N  N4  1  0.147126  0.103058  0.372394  1
  N  N5  1  0.175950  0.308047  0.373558  1
  N  N6  1  0.183152  0.439616  0.383384  1
  N  N7  1  0.179123  0.639168  0.382936  1
  N  N8  1  0.170088  0.774712  0.379735  1
  N  N9  1  0.352874  0.103058  0.872394  1
  N  N10  1  0.324050  0.308047  0.873558  1
  N  N11  1  0.316848  0.439616  0.883384  1
  N  N12  1  0.320877  0.639168  0.882936  1
  N  N13  1  0.329912  0.774712  0.879735  1
  N  N14  1  0.385004  0.121270  0.129425  1
  N  N15  1  0.399836  0.454697  0.137108  1
  N  N16  1  0.389676  0.789955  0.135363  1
  N  N17  1  0.490274  0.989838  0.506346  1
  N  N18  1  0.602675  0.212653  0.861455  1
  N  N19  1  0.598166  0.546458  0.861044  1
  N  N20  1  0.609378  0.877948  0.870191  1
  N  N21  1  0.688561  0.028799  0.126974  1
  N  N22  1  0.664000  0.223762  0.125473  1
  N  N23  1  0.675526  0.361271  0.116751  1
  N  N24  1  0.677336  0.561144  0.117428  1
  N  N25  1  0.672561  0.692202  0.128911  1
  N  N26  1  0.644326  0.896728  0.130205  1
  N  N27  1  0.811439  0.028799  0.626974  1
  N  N28  1  0.836000  0.223762  0.625473  1
  N  N29  1  0.824474  0.361271  0.616751  1
  N  N30  1  0.822664  0.561144  0.617428  1
  N  N31  1  0.827439  0.692202  0.628911  1
  N  N32  1  0.855674  0.896728  0.630205  1
  N  N33  1  0.897325  0.212653  0.361455  1
  N  N34  1  0.901834  0.546458  0.361044  1
  N  N35  1  0.890622  0.877948  0.370191  1
  O  O36  1  0.994292  0.330360  -0.001952  1
  O  O37  1  0.995513  0.672008  0.994557  1
  O  O38  1  0.164641  0.975706  0.364177  1
  O  O39  1  0.335359  0.975706  0.864177  1
  O  O40  1  0.505708  0.330360  0.498048  1
  O  O41  1  0.504487  0.672008  0.494557  1
  P  P42  1  0.991458  0.103690  0.499352  1
  P  P43  1  0.002573  0.437925  0.499589  1
  P  P44  1  1.000295  0.562398  0.500013  1
  P  P45  1  -0.001132  0.771532  0.502866  1
  P  P46  1  0.994960  0.893857  0.504149  1
  P  P47  1  0.197273  0.046409  0.861354  1
  P  P48  1  0.202032  0.379546  0.859987  1
  P  P49  1  0.207173  0.714216  0.861548  1
  P  P50  1  0.302727  0.046409  0.361354  1
  P  P51  1  0.297968  0.379546  0.359987  1
  P  P52  1  0.292827  0.714216  0.361548  1
  P  P53  1  0.508542  0.103690  -0.000648  1
  P  P54  1  0.494164  0.228221  0.998258  1
  P  P55  1  0.497427  0.437925  -0.000411  1
  P  P56  1  0.499705  0.562398  1.000013  1
  P  P57  1  0.501132  0.771532  1.002866  1
  P  P58  1  0.505040  0.893857  0.004149  1
  P  P59  1  0.710488  0.285434  0.640277  1
  P  P60  1  0.706094  0.620832  0.640826  1
  P  P61  1  0.696502  0.956540  0.636317  1
  P  P62  1  0.789512  0.285434  0.140277  1
  P  P63  1  0.793906  0.620832  0.140826  1
  P  P64  1  0.803498  0.956540  0.136317  1
  P  P65  1  0.005836  0.228221  0.498258  1
