# generated using pymatgen
data_La10(Si2O9)3
_symmetry_space_group_name_H-M   'P 1'
_cell_length_a   9.96360330
_cell_length_b   19.61638873
_cell_length_c   7.30594992
_cell_angle_alpha   90.00000000
_cell_angle_beta   90.00000000
_cell_angle_gamma   120.42809120
_symmetry_Int_Tables_number   1
_chemical_formula_structural   La10(Si2O9)3
_chemical_formula_sum   'La20 Si12 O54'
_cell_volume   1231.26963847
_cell_formula_units_Z   2
loop_
 _symmetry_equiv_pos_site_id
 _symmetry_equiv_pos_as_xyz
  1  'x, y, z'
loop_
 _atom_site_type_symbol
 _atom_site_label
 _atom_site_symmetry_multiplicity
 _atom_site_fract_x
 _atom_site_fract_y
 _atom_site_fract_z
 _atom_site_occupancy
  La  La0  1  0.242259  0.996317  0.239130  1
  La  La1  1  0.005447  0.611012  0.252712  1
  La  La2  1  0.338475  0.834441  0.501461  1
  La  La3  1  0.332166  0.834039  0.002252  1
  La  La4  1  0.239343  0.615637  0.748309  1
  La  La5  1  0.242259  0.496317  0.260870  1
  La  La6  1  0.778405  0.895717  0.245655  1
  La  La7  1  0.005447  0.111012  0.247288  1
  La  La8  1  0.672753  0.671504  0.505742  1
  La  La9  1  0.662442  0.669640  0.004878  1
  La  La10  1  0.332166  0.334039  0.497748  1
  La  La11  1  0.338475  0.334441  0.998539  1
  La  La12  1  0.000062  0.881404  0.753895  1
  La  La13  1  0.239343  0.115637  0.751691  1
  La  La14  1  0.770577  0.502668  0.793085  1
  La  La15  1  0.778405  0.395717  0.254344  1
  La  La16  1  0.662442  0.169641  0.495122  1
  La  La17  1  0.672753  0.171504  0.994258  1
  La  La18  1  0.000062  0.381404  0.746105  1
  La  La19  1  0.770577  0.002668  0.706915  1
  Si  Si20  1  0.033209  0.701797  0.751841  1
  Si  Si21  1  0.376660  0.985922  0.746876  1
  Si  Si22  1  0.408828  0.689720  0.255740  1
  Si  Si23  1  0.592688  0.814025  0.752186  1
  Si  Si24  1  0.033209  0.201797  0.748159  1
  Si  Si25  1  0.376660  0.485922  0.753124  1
  Si  Si26  1  0.616121  0.518741  0.245490  1
  Si  Si27  1  0.969640  0.797791  0.248557  1
  Si  Si28  1  0.408828  0.189720  0.244260  1
  Si  Si29  1  0.592688  0.314025  0.747814  1
  Si  Si30  1  0.616121  0.018741  0.254510  1
  Si  Si31  1  0.969640  0.297791  0.251443  1
  O  O32  1  0.256442  0.952899  0.925030  1
  O  O33  1  0.263588  0.955001  0.564010  1
  O  O34  1  0.134916  0.799742  0.746844  1
  O  O35  1  0.159169  0.834015  0.248881  1
  O  O36  1  0.092362  0.671480  0.574787  1
  O  O37  1  0.088887  0.674271  0.936679  1
  O  O38  1  0.032897  0.499981  0.335275  1
  O  O39  1  0.012177  0.498663  0.756847  1
  O  O40  1  0.470547  0.936606  0.755726  1
  O  O41  1  0.337296  0.749033  0.249488  1
  O  O42  1  0.495956  0.922320  0.250731  1
  O  O43  1  0.400242  0.764288  0.768811  1
  O  O44  1  0.348291  0.628807  0.077225  1
  O  O45  1  0.353984  0.635954  0.443161  1
  O  O46  1  0.625580  0.863744  0.559831  1
  O  O47  1  0.662580  0.876566  0.923859  1
  O  O48  1  0.263588  0.455001  0.935990  1
  O  O49  1  0.256442  0.452899  0.574970  1
  O  O50  1  0.134916  0.299742  0.753156  1
  O  O51  1  0.159169  0.334015  0.251119  1
  O  O52  1  0.601273  0.737761  0.251605  1
  O  O53  1  0.484587  0.582729  0.747044  1
  O  O54  1  0.088887  0.174271  0.563321  1
  O  O55  1  0.092362  0.171480  0.925213  1
  O  O56  1  0.670445  0.757455  0.748809  1
  O  O57  1  0.524243  0.567123  0.300618  1
  O  O58  1  0.032897  0.999981  0.164725  1
  O  O59  1  0.470547  0.436606  0.744274  1
  O  O60  1  0.337296  0.249033  0.250512  1
  O  O61  1  0.910882  0.821596  0.060241  1
  O  O62  1  0.918125  0.832345  0.426206  1
  O  O63  1  0.495956  0.422320  0.249269  1
  O  O64  1  0.400242  0.264288  0.731189  1
  O  O65  1  0.845139  0.668430  0.748638  1
  O  O66  1  0.869605  0.700397  0.258282  1
  O  O67  1  0.751645  0.543543  0.401873  1
  O  O68  1  0.663188  0.551286  0.033496  1
  O  O69  1  0.353984  0.135954  0.056839  1
  O  O70  1  0.348291  0.128807  0.422775  1
  O  O71  1  0.662580  0.376566  0.576141  1
  O  O72  1  0.625580  0.363744  0.940169  1
  O  O73  1  0.856877  0.503590  0.076606  1
  O  O74  1  0.601273  0.237761  0.248395  1
  O  O75  1  0.484587  0.082729  0.752956  1
  O  O76  1  0.670445  0.257455  0.751191  1
  O  O77  1  0.524243  0.067123  0.199382  1
  O  O78  1  0.918125  0.332345  0.073794  1
  O  O79  1  0.910882  0.321596  0.439759  1
  O  O80  1  0.845139  0.168430  0.751362  1
  O  O81  1  0.869605  0.200396  0.241718  1
  O  O82  1  0.663188  0.051286  0.466504  1
  O  O83  1  0.751645  0.043543  0.098127  1
  O  O84  1  0.856877  0.003590  0.423394  1
  O  O85  1  0.012177  0.998663  0.743153  1
