# generated using pymatgen
data_Ti9ZnS16
_symmetry_space_group_name_H-M   'P 1'
_cell_length_a   7.03717021
_cell_length_b   27.83842804
_cell_length_c   12.05418943
_cell_angle_alpha   30.00167537
_cell_angle_beta   55.13655528
_cell_angle_gamma   60.32818952
_symmetry_Int_Tables_number   1
_chemical_formula_structural   Ti9ZnS16
_chemical_formula_sum   'Ti18 Zn2 S32'
_cell_volume   968.85820772
_cell_formula_units_Z   2
loop_
 _symmetry_equiv_pos_site_id
 _symmetry_equiv_pos_as_xyz
  1  'x, y, z'
loop_
 _atom_site_type_symbol
 _atom_site_label
 _atom_site_symmetry_multiplicity
 _atom_site_fract_x
 _atom_site_fract_y
 _atom_site_fract_z
 _atom_site_occupancy
  Ti  Ti0  1  0.507810  0.000316  0.990388  1
  Ti  Ti1  1  0.500059  0.129171  0.991844  1
  Ti  Ti2  1  0.507810  0.249684  0.991654  1
  Ti  Ti3  1  0.486494  0.004938  0.492850  1
  Ti  Ti4  1  0.496862  0.362977  0.027559  1
  Ti  Ti5  1  0.500059  0.120829  0.508529  1
  Ti  Ti6  1  0.486494  0.245062  0.512603  1
  Ti  Ti7  1  0.487900  0.611713  0.037008  1
  Ti  Ti8  1  0.491380  0.371713  0.514494  1
  Ti  Ti9  1  0.011098  0.245423  0.510361  1
  Ti  Ti10  1  0.497123  0.494061  0.504720  1
  Ti  Ti11  1  0.487900  0.638287  0.483861  1
  Ti  Ti12  1  0.491380  0.878287  0.001347  1
  Ti  Ti13  1  0.026037  0.492296  0.504520  1
  Ti  Ti14  1  0.497123  0.755939  0.480963  1
  Ti  Ti15  1  0.496862  0.887023  0.479466  1
  Ti  Ti16  1  0.026037  0.757704  0.473705  1
  Ti  Ti17  1  0.011098  0.004577  0.492052  1
  Zn  Zn18  1  0.876763  0.500751  0.872201  1
  Zn  Zn19  1  0.876763  0.749249  0.875207  1
  S  S20  1  0.247121  0.003375  0.243346  1
  S  S21  1  0.243361  0.130948  0.240912  1
  S  S22  1  0.738340  0.004141  0.247595  1
  S  S23  1  0.247121  0.246625  0.256844  1
  S  S24  1  0.253803  0.370393  0.255420  1
  S  S25  1  0.749974  0.125038  0.248928  1
  S  S26  1  0.243361  0.119052  0.764704  1
  S  S27  1  0.738340  0.245859  0.264158  1
  S  S28  1  0.256820  0.248293  0.751495  1
  S  S29  1  0.255932  0.497518  0.252017  1
  S  S30  1  0.247920  0.619226  0.262180  1
  S  S31  1  0.746271  0.364235  0.278399  1
  S  S32  1  0.749974  0.124962  0.749081  1
  S  S33  1  0.240510  0.368647  0.770156  1
  S  S34  1  0.743543  0.495392  0.260428  1
  S  S35  1  0.760124  0.249099  0.749215  1
  S  S36  1  0.275127  0.499019  0.744163  1
  S  S37  1  0.255932  0.752482  0.242087  1
  S  S38  1  0.240510  0.881353  0.244745  1
  S  S39  1  0.746416  0.613830  0.279297  1
  S  S40  1  0.247920  0.630774  0.739083  1
  S  S41  1  0.749324  0.371876  0.755622  1
  S  S42  1  0.738887  0.499865  0.741374  1
  S  S43  1  0.743543  0.754608  0.241997  1
  S  S44  1  0.275127  0.750981  0.740237  1
  S  S45  1  0.749324  0.878124  0.243125  1
  S  S46  1  0.253803  0.879607  0.736994  1
  S  S47  1  0.746416  0.636170  0.734618  1
  S  S48  1  0.738887  0.750135  0.740836  1
  S  S49  1  0.256820  0.001707  0.744666  1
  S  S50  1  0.746271  0.885765  0.735337  1
  S  S51  1  0.760124  0.000901  0.745609  1
