# generated using pymatgen
data_Li34(YSb2)13
_symmetry_space_group_name_H-M   'P 1'
_cell_length_a   4.51594310
_cell_length_b   4.51594345
_cell_length_c   92.95942253
_cell_angle_alpha   90.00000000
_cell_angle_beta   90.00000000
_cell_angle_gamma   119.99999744
_symmetry_Int_Tables_number   1
_chemical_formula_structural   Li34(YSb2)13
_chemical_formula_sum   'Li34 Y13 Sb26'
_cell_volume   1641.80289150
_cell_formula_units_Z   1
loop_
 _symmetry_equiv_pos_site_id
 _symmetry_equiv_pos_as_xyz
  1  'x, y, z'
loop_
 _atom_site_type_symbol
 _atom_site_label
 _atom_site_symmetry_multiplicity
 _atom_site_fract_x
 _atom_site_fract_y
 _atom_site_fract_z
 _atom_site_occupancy
  Li  Li0  1  0.000000  0.000000  0.117305  1
  Li  Li1  1  0.000000  0.000000  0.348146  1
  Li  Li2  1  0.000000  0.000000  0.576887  1
  Li  Li3  1  0.000000  0.000000  0.808703  1
  Li  Li4  1  0.000000  0.000000  0.036848  1
  Li  Li5  1  0.000000  0.000000  0.193857  1
  Li  Li6  1  0.333333  0.666667  0.050799  1
  Li  Li7  1  0.000000  0.000000  0.269003  1
  Li  Li8  1  0.333333  0.666667  0.280489  1
  Li  Li9  1  0.000000  0.000000  0.421922  1
  Li  Li10  1  0.333333  0.666667  0.433935  1
  Li  Li11  1  0.333333  0.666667  0.511311  1
  Li  Li12  1  0.333333  0.666667  0.588376  1
  Li  Li13  1  0.000000  0.000000  0.653916  1
  Li  Li14  1  0.000000  0.000000  0.731195  1
  Li  Li15  1  0.333333  0.666667  0.665343  1
  Li  Li16  1  0.333333  0.666667  0.742528  1
  Li  Li17  1  0.333333  0.666667  0.820037  1
  Li  Li18  1  0.333333  0.666667  0.973257  1
  Li  Li19  1  0.666667  0.333333  0.180078  1
  Li  Li20  1  0.666667  0.333333  0.334435  1
  Li  Li21  1  0.666667  0.333333  0.410822  1
  Li  Li22  1  0.666667  0.333333  0.103518  1
  Li  Li23  1  0.666667  0.333333  0.257306  1
  Li  Li24  1  0.666667  0.333333  0.488303  1
  Li  Li25  1  0.666667  0.333333  0.565470  1
  Li  Li26  1  0.666667  0.333333  0.642418  1
  Li  Li27  1  0.666667  0.333333  0.873289  1
  Li  Li28  1  0.666667  0.333333  0.719497  1
  Li  Li29  1  0.666667  0.333333  0.796558  1
  Li  Li30  1  0.000000  0.000000  0.887202  1
  Li  Li31  1  0.666667  0.333333  0.950352  1
  Li  Li32  1  0.000000  0.000000  0.499628  1
  Li  Li33  1  0.000000  0.000000  0.961725  1
  Sb  Sb34  1  0.333333  0.666667  0.020381  1
  Sb  Sb35  1  0.333333  0.666667  0.096170  1
  Sb  Sb36  1  0.333333  0.666667  0.171879  1
  Sb  Sb37  1  0.333333  0.666667  0.249195  1
  Sb  Sb38  1  0.333333  0.666667  0.326351  1
  Sb  Sb39  1  0.333333  0.666667  0.403205  1
  Sb  Sb40  1  0.333333  0.666667  0.480474  1
  Sb  Sb41  1  0.333333  0.666667  0.557589  1
  Sb  Sb42  1  0.333333  0.666667  0.634539  1
  Sb  Sb43  1  0.333333  0.666667  0.711591  1
  Sb  Sb44  1  0.333333  0.666667  0.788652  1
  Sb  Sb45  1  0.333333  0.666667  0.865141  1
  Sb  Sb46  1  0.333333  0.666667  0.942199  1
  Sb  Sb47  1  0.666667  0.333333  0.058591  1
  Sb  Sb48  1  0.666667  0.333333  0.133846  1
  Sb  Sb49  1  0.666667  0.333333  0.210399  1
  Sb  Sb50  1  0.666667  0.333333  0.288174  1
  Sb  Sb51  1  0.666667  0.333333  0.364697  1
  Sb  Sb52  1  0.666667  0.333333  0.441939  1
  Sb  Sb53  1  0.666667  0.333333  0.519192  1
  Sb  Sb54  1  0.666667  0.333333  0.596187  1
  Sb  Sb55  1  0.666667  0.333333  0.673175  1
  Sb  Sb56  1  0.666667  0.333333  0.750270  1
  Sb  Sb57  1  0.666667  0.333333  0.827115  1
  Sb  Sb58  1  0.666667  0.333333  0.903550  1
  Sb  Sb59  1  0.666667  0.333333  0.981444  1
  Y  Y60  1  0.000000  0.000000  0.001037  1
  Y  Y61  1  0.000000  0.000000  0.077243  1
  Y  Y62  1  0.000000  0.000000  0.153099  1
  Y  Y63  1  0.000000  0.000000  0.307798  1
  Y  Y64  1  0.000000  0.000000  0.538364  1
  Y  Y65  1  0.000000  0.000000  0.615382  1
  Y  Y66  1  0.000000  0.000000  0.846825  1
  Y  Y67  1  0.000000  0.000000  0.229672  1
  Y  Y68  1  0.000000  0.000000  0.461059  1
  Y  Y69  1  0.000000  0.000000  0.692441  1
  Y  Y70  1  0.000000  0.000000  0.922653  1
  Y  Y71  1  0.000000  0.000000  0.383538  1
  Y  Y72  1  0.000000  0.000000  0.769639  1
