# generated using pymatgen
data_Ba23U8O48
_symmetry_space_group_name_H-M   'P 1'
_cell_length_a   13.05859712
_cell_length_b   13.05859697
_cell_length_c   13.05859628
_cell_angle_alpha   89.99617632
_cell_angle_beta   120.00220832
_cell_angle_gamma   120.00220688
_symmetry_Int_Tables_number   1
_chemical_formula_structural   Ba23U8O48
_chemical_formula_sum   'Ba23 U8 O48'
_cell_volume   1574.56301754
_cell_formula_units_Z   1
loop_
 _symmetry_equiv_pos_site_id
 _symmetry_equiv_pos_as_xyz
  1  'x, y, z'
loop_
 _atom_site_type_symbol
 _atom_site_label
 _atom_site_symmetry_multiplicity
 _atom_site_fract_x
 _atom_site_fract_y
 _atom_site_fract_z
 _atom_site_occupancy
  Ba  Ba0  1  0.500000  0.000000  0.000000  1
  Ba  Ba1  1  0.735100  0.102776  0.367676  1
  Ba  Ba2  1  0.735100  0.367676  0.102776  1
  Ba  Ba3  1  0.000000  0.500000  0.500000  1
  Ba  Ba4  1  0.500000  0.000000  0.500000  1
  Ba  Ba5  1  0.000000  0.000000  0.500000  1
  Ba  Ba6  1  0.000000  0.500000  0.000000  1
  Ba  Ba7  1  0.264900  0.367676  0.632576  1
  Ba  Ba8  1  0.264900  0.632576  0.367676  1
  Ba  Ba9  1  0.787539  0.893843  0.106303  1
  Ba  Ba10  1  0.787539  0.106303  0.893843  1
  Ba  Ba11  1  0.787539  0.893697  0.681236  1
  Ba  Ba12  1  0.787539  0.681236  0.893697  1
  Ba  Ba13  1  0.212461  0.318764  0.106303  1
  Ba  Ba14  1  0.212461  0.106303  0.318764  1
  Ba  Ba15  1  0.500000  0.500000  0.500000  1
  Ba  Ba16  1  0.212461  0.893697  0.106157  1
  Ba  Ba17  1  0.212461  0.106157  0.893697  1
  Ba  Ba18  1  0.735100  0.367424  0.632324  1
  Ba  Ba19  1  0.735100  0.632324  0.367424  1
  Ba  Ba20  1  0.500000  0.500000  0.000000  1
  Ba  Ba21  1  0.264900  0.632324  0.897224  1
  Ba  Ba22  1  0.264900  0.897224  0.632324  1
  O  O23  1  0.000000  0.866831  0.866831  1
  O  O24  1  0.000000  0.640652  0.865275  1
  O  O25  1  1.000000  0.865275  0.640652  1
  O  O26  1  0.000000  0.864909  0.359676  1
  O  O27  1  0.000000  0.359676  0.864909  1
  O  O28  1  1.000000  0.638862  0.638862  1
  O  O29  1  0.224623  0.865275  0.865275  1
  O  O30  1  0.000000  0.133255  0.866745  1
  O  O31  1  0.000000  0.638738  0.361262  1
  O  O32  1  1.000000  0.866745  0.133255  1
  O  O33  1  1.000000  0.361262  0.638738  1
  O  O34  1  0.000000  0.361138  0.361138  1
  O  O35  1  1.000000  0.135091  0.640324  1
  O  O36  1  1.000000  0.640324  0.135091  1
  O  O37  1  0.224605  0.865010  0.359595  1
  O  O38  1  0.224605  0.359595  0.865010  1
  O  O39  1  0.277477  0.638738  0.638738  1
  O  O40  1  0.505233  0.864909  0.864909  1
  O  O41  1  0.000000  0.134725  0.359348  1
  O  O42  1  1.000000  0.359348  0.134725  1
  O  O43  1  0.505416  0.640405  0.865010  1
  O  O44  1  0.505416  0.865010  0.640405  1
  O  O45  1  1.000000  0.133169  0.133169  1
  O  O46  1  0.224623  0.359348  0.359348  1
  O  O47  1  0.275395  0.637697  0.137697  1
  O  O48  1  0.275395  0.137697  0.637697  1
  O  O49  1  0.505233  0.640324  0.640324  1
  O  O50  1  0.500000  0.862313  0.362313  1
  O  O51  1  0.500000  0.362313  0.862313  1
  O  O52  1  0.733489  0.866745  0.866745  1
  O  O53  1  0.500000  0.637697  0.362303  1
  O  O54  1  0.500000  0.137697  0.862303  1
  O  O55  1  0.500000  0.862303  0.137697  1
  O  O56  1  0.500000  0.362303  0.637697  1
  O  O57  1  0.266511  0.133255  0.133255  1
  O  O58  1  0.500000  0.137687  0.637687  1
  O  O59  1  0.494767  0.359676  0.359676  1
  O  O60  1  0.500000  0.637687  0.137687  1
  O  O61  1  0.724605  0.362303  0.862303  1
  O  O62  1  0.775377  0.640652  0.640652  1
  O  O63  1  0.724605  0.862303  0.362303  1
  O  O64  1  0.494584  0.134990  0.359595  1
  O  O65  1  0.494584  0.359595  0.134990  1
  O  O66  1  0.494767  0.135091  0.135091  1
  O  O67  1  0.775395  0.134990  0.640405  1
  O  O68  1  0.775395  0.640405  0.134990  1
  O  O69  1  0.722523  0.361262  0.361262  1
  O  O70  1  0.775377  0.134725  0.134725  1
  U  U71  1  0.500000  0.250000  0.750000  1
  U  U72  1  0.499453  0.749727  0.749727  1
  U  U73  1  1.000000  0.250159  0.250159  1
  U  U74  1  1.000000  0.749727  0.250273  1
  U  U75  1  0.000000  0.250273  0.749727  1
  U  U76  1  0.500000  0.750000  0.250000  1
  U  U77  1  0.000000  0.749841  0.749841  1
  U  U78  1  0.500547  0.250273  0.250273  1
