# generated using pymatgen
data_K6Ge2O7
_symmetry_space_group_name_H-M   'P 1'
_cell_length_a   6.62785974
_cell_length_b   9.20850124
_cell_length_c   9.40386184
_cell_angle_alpha   90.00000000
_cell_angle_beta   91.67681010
_cell_angle_gamma   90.00000000
_symmetry_Int_Tables_number   1
_chemical_formula_structural   K6Ge2O7
_chemical_formula_sum   'K12 Ge4 O14'
_cell_volume   573.69688088
_cell_formula_units_Z   2
loop_
 _symmetry_equiv_pos_site_id
 _symmetry_equiv_pos_as_xyz
  1  'x, y, z'
loop_
 _atom_site_type_symbol
 _atom_site_label
 _atom_site_symmetry_multiplicity
 _atom_site_fract_x
 _atom_site_fract_y
 _atom_site_fract_z
 _atom_site_occupancy
  O  O0  1  0.545852  0.665048  0.300269  1
  O  O1  1  0.077272  0.546602  0.569264  1
  O  O2  1  0.490653  0.747572  0.999457  1
  O  O3  1  0.990653  0.252428  0.499457  1
  O  O4  1  0.429935  0.046158  0.939893  1
  O  O5  1  0.929935  0.953842  0.439893  1
  O  O6  1  0.824293  0.909814  0.881424  1
  O  O7  1  0.324293  0.090186  0.381424  1
  O  O8  1  0.461552  0.840822  0.703676  1
  O  O9  1  0.961552  0.159178  0.203676  1
  O  O10  1  0.577272  0.453398  0.069264  1
  O  O11  1  0.679876  0.418138  0.632653  1
  O  O12  1  0.045852  0.334952  0.800269  1
  O  O13  1  0.179876  0.581862  0.132653  1
  K  K14  1  0.377661  0.540796  0.781375  1
  K  K15  1  0.126402  0.039618  0.725600  1
  K  K16  1  0.126012  0.897859  0.079185  1
  K  K17  1  0.626012  0.102141  0.579185  1
  K  K18  1  0.752872  0.722407  0.544048  1
  K  K19  1  0.252872  0.277593  0.044048  1
  K  K20  1  0.252863  0.778367  0.463075  1
  K  K21  1  0.752863  0.221633  0.963075  1
  K  K22  1  0.878303  0.599889  0.929079  1
  K  K23  1  0.378303  0.400111  0.429079  1
  K  K24  1  0.626402  0.960382  0.225600  1
  K  K25  1  0.877661  0.459204  0.281375  1
  Ge  Ge26  1  0.945341  0.393951  0.633915  1
  Ge  Ge27  1  0.557713  0.892458  0.873488  1
  Ge  Ge28  1  0.057713  0.107542  0.373488  1
  Ge  Ge29  1  0.445341  0.606049  0.133915  1
