# generated using pymatgen
data_Mn15(Br3O10)2
_symmetry_space_group_name_H-M   'P 1'
_cell_length_a   9.43493227
_cell_length_b   9.43493227
_cell_length_c   9.43493227
_cell_angle_alpha   90.00903569
_cell_angle_beta   119.99478336
_cell_angle_gamma   119.99478342
_symmetry_Int_Tables_number   1
_chemical_formula_structural   Mn15(Br3O10)2
_chemical_formula_sum   'Mn15 Br6 O20'
_cell_volume   593.93046101
_cell_formula_units_Z   1
loop_
 _symmetry_equiv_pos_site_id
 _symmetry_equiv_pos_as_xyz
  1  'x, y, z'
loop_
 _atom_site_type_symbol
 _atom_site_label
 _atom_site_symmetry_multiplicity
 _atom_site_fract_x
 _atom_site_fract_y
 _atom_site_fract_z
 _atom_site_occupancy
  O  O0  1  0.199251  0.099600  0.900349  1
  O  O1  1  0.199251  0.099651  0.298902  1
  O  O2  1  0.500000  0.402192  0.902192  1
  O  O3  1  0.500000  0.902192  0.402192  1
  O  O4  1  0.500000  0.597808  0.097808  1
  O  O5  1  0.500000  0.097808  0.597808  1
  O  O6  1  0.804387  0.402193  0.902193  1
  O  O7  1  0.500000  0.902193  0.097807  1
  O  O8  1  0.500000  0.597807  0.402193  1
  O  O9  1  0.195613  0.097807  0.597807  1
  O  O10  1  0.195613  0.597807  0.097807  1
  O  O11  1  0.500000  0.097807  0.902193  1
  O  O12  1  0.500000  0.402193  0.597807  1
  O  O13  1  0.804387  0.902193  0.402193  1
  O  O14  1  0.199251  0.298902  0.099651  1
  O  O15  1  0.800749  0.701098  0.900349  1
  O  O16  1  0.800749  0.099651  0.900400  1
  O  O17  1  0.199251  0.900349  0.099600  1
  O  O18  1  0.800749  0.900349  0.701098  1
  O  O19  1  0.800749  0.900400  0.099651  1
  Mn  Mn20  1  0.350098  0.350166  0.350166  1
  Mn  Mn21  1  0.500000  0.750000  0.250000  1
  Mn  Mn22  1  0.500000  0.250000  0.750000  1
  Mn  Mn23  1  0.649853  0.000000  0.649853  1
  Mn  Mn24  1  0.649853  0.649853  0.000000  1
  Mn  Mn25  1  0.350147  0.350147  0.000000  1
  Mn  Mn26  1  0.350147  0.000000  0.350147  1
  Mn  Mn27  1  0.350098  0.999932  0.999932  1
  Mn  Mn28  1  0.649902  0.649834  0.649834  1
  Mn  Mn29  1  0.649902  0.000068  0.000068  1
  Mn  Mn30  1  0.000000  0.649834  0.999932  1
  Mn  Mn31  1  0.000000  0.999932  0.649834  1
  Mn  Mn32  1  0.000000  0.000068  0.350166  1
  Mn  Mn33  1  0.000000  0.350166  0.000068  1
  Mn  Mn34  1  0.000000  0.000000  0.000000  1
  Br  Br35  1  0.000000  0.299683  0.299683  1
  Br  Br36  1  0.400886  0.700443  0.700443  1
  Br  Br37  1  0.000000  0.700443  0.299557  1
  Br  Br38  1  0.000000  0.299557  0.700443  1
  Br  Br39  1  0.599114  0.299557  0.299557  1
  Br  Br40  1  0.000000  0.700317  0.700317  1
