# generated using pymatgen
data_K2Cr4O13
_symmetry_space_group_name_H-M   'P 1'
_cell_length_a   7.70193874
_cell_length_b   8.94250241
_cell_length_c   9.55354680
_cell_angle_alpha   92.50490577
_cell_angle_beta   90.00000000
_cell_angle_gamma   90.00000000
_symmetry_Int_Tables_number   1
_chemical_formula_structural   K2Cr4O13
_chemical_formula_sum   'K4 Cr8 O26'
_cell_volume   657.36804251
_cell_formula_units_Z   2
loop_
 _symmetry_equiv_pos_site_id
 _symmetry_equiv_pos_as_xyz
  1  'x, y, z'
loop_
 _atom_site_type_symbol
 _atom_site_label
 _atom_site_symmetry_multiplicity
 _atom_site_fract_x
 _atom_site_fract_y
 _atom_site_fract_z
 _atom_site_occupancy
  K  K0  1  0.593606  0.196657  0.757470  1
  K  K1  1  0.406394  0.196657  0.257470  1
  K  K2  1  0.103825  0.455861  0.896119  1
  K  K3  1  0.896175  0.455861  0.396119  1
  Cr  Cr4  1  0.571550  0.484657  0.032258  1
  Cr  Cr5  1  0.428450  0.484657  0.532258  1
  Cr  Cr6  1  0.566106  0.828208  0.987100  1
  Cr  Cr7  1  0.433894  0.828208  0.487100  1
  Cr  Cr8  1  0.892521  0.819340  0.755909  1
  Cr  Cr9  1  0.107479  0.819340  0.255909  1
  Cr  Cr10  1  0.070383  0.142337  0.631798  1
  Cr  Cr11  1  0.929617  0.142337  0.131798  1
  O  O12  1  0.741445  0.467983  0.931687  1
  O  O13  1  0.258555  0.467983  0.431687  1
  O  O14  1  0.456623  0.658033  0.992371  1
  O  O15  1  0.543377  0.658033  0.492371  1
  O  O16  1  0.438729  0.344834  0.999784  1
  O  O17  1  0.561271  0.344834  0.499784  1
  O  O18  1  0.626962  0.489105  0.196228  1
  O  O19  1  0.373038  0.489105  0.696228  1
  O  O20  1  0.430702  0.964303  0.004106  1
  O  O21  1  0.569298  0.964303  0.504106  1
  O  O22  1  0.701351  0.836777  0.113586  1
  O  O23  1  0.298649  0.836777  0.613586  1
  O  O24  1  0.677527  0.840319  0.825495  1
  O  O25  1  0.322473  0.840319  0.325495  1
  O  O26  1  0.897218  0.671190  0.654835  1
  O  O27  1  0.102782  0.671190  0.154835  1
  O  O28  1  0.027687  0.797713  0.879904  1
  O  O29  1  0.972313  0.797713  0.379904  1
  O  O30  1  0.150553  0.129171  0.474296  1
  O  O31  1  0.849447  0.129171  0.974296  1
  O  O32  1  0.225446  0.163729  0.745984  1
  O  O33  1  0.774554  0.163729  0.245984  1
  O  O34  1  0.938209  0.976555  0.664555  1
  O  O35  1  0.061791  0.976555  0.164555  1
  O  O36  1  0.940111  0.286780  0.646855  1
  O  O37  1  0.059889  0.286780  0.146855  1
