# generated using pymatgen
data_La14C14Cl9
_symmetry_space_group_name_H-M   'P 1'
_cell_length_a   6.97897790
_cell_length_b   7.82545394
_cell_length_c   30.03131623
_cell_angle_alpha   90.00000000
_cell_angle_beta   90.00000000
_cell_angle_gamma   104.41569453
_symmetry_Int_Tables_number   1
_chemical_formula_structural   La14C14Cl9
_chemical_formula_sum   'La28 C28 Cl18'
_cell_volume   1588.48121307
_cell_formula_units_Z   2
loop_
 _symmetry_equiv_pos_site_id
 _symmetry_equiv_pos_as_xyz
  1  'x, y, z'
loop_
 _atom_site_type_symbol
 _atom_site_label
 _atom_site_symmetry_multiplicity
 _atom_site_fract_x
 _atom_site_fract_y
 _atom_site_fract_z
 _atom_site_occupancy
  La  La0  1  0.286468  0.156866  0.328754  1
  La  La1  1  0.268091  0.225327  0.170930  1
  La  La2  1  0.495132  0.745725  0.956238  1
  La  La3  1  0.512645  0.603792  0.818763  1
  La  La4  1  0.525521  0.613385  0.388850  1
  La  La5  1  0.280721  0.306969  0.469340  1
  La  La6  1  0.504187  0.673942  0.114201  1
  La  La7  1  0.513042  0.687566  0.542993  1
  La  La8  1  0.015461  0.538795  0.315432  1
  La  La9  1  0.012453  0.532915  0.747072  1
  La  La10  1  0.279737  0.154120  0.757404  1
  La  La11  1  0.786468  0.156866  0.671246  1
  La  La12  1  0.013042  0.687566  0.457007  1
  La  La13  1  0.012645  0.603792  0.181237  1
  La  La14  1  0.512453  0.532915  0.252928  1
  La  La15  1  0.515461  0.538795  0.684568  1
  La  La16  1  0.025521  0.613385  0.611150  1
  La  La17  1  0.264719  0.294877  0.896808  1
  La  La18  1  0.260809  0.366037  0.032138  1
  La  La19  1  0.004187  0.673942  0.885799  1
  La  La20  1  0.780721  0.306969  0.530660  1
  La  La21  1  0.774438  0.232706  0.396183  1
  La  La22  1  0.768091  0.225327  0.829070  1
  La  La23  1  0.779737  0.154120  0.242596  1
  La  La24  1  0.764719  0.294877  0.103192  1
  La  La25  1  0.274438  0.232706  0.603817  1
  La  La26  1  0.995132  0.745725  0.043762  1
  La  La27  1  0.760809  0.366037  0.967862  1
  C  C28  1  0.169577  0.301625  0.265368  1
  C  C29  1  0.171033  0.307661  0.695463  1
  C  C30  1  0.622873  0.416036  0.335691  1
  C  C31  1  0.654379  0.493497  0.051366  1
  C  C32  1  0.104649  0.596612  0.980484  1
  C  C33  1  0.607811  0.470094  0.164399  1
  C  C34  1  0.678517  0.365123  0.620770  1
  C  C35  1  0.120861  0.482498  0.405058  1
  C  C36  1  0.154379  0.493497  0.948634  1
  C  C37  1  0.668075  0.354449  0.191335  1
  C  C38  1  0.669577  0.301625  0.734632  1
  C  C39  1  0.168075  0.354449  0.808665  1
  C  C40  1  0.176448  0.429026  0.550922  1
  C  C41  1  0.167086  0.427020  0.120394  1
  C  C42  1  0.108417  0.544481  0.093418  1
  C  C43  1  0.667086  0.427020  0.879606  1
  C  C44  1  0.126919  0.536984  0.519669  1
  C  C45  1  0.676448  0.429026  0.449078  1
  C  C46  1  0.122873  0.416036  0.664309  1
  C  C47  1  0.608417  0.544481  0.906582  1
  C  C48  1  0.620861  0.482498  0.594942  1
  C  C49  1  0.118465  0.406455  0.233910  1
  C  C50  1  0.604649  0.596612  0.019516  1
  C  C51  1  0.618465  0.406455  0.766090  1
  C  C52  1  0.626919  0.536984  0.480331  1
  C  C53  1  0.178517  0.365123  0.379230  1
  C  C54  1  0.671033  0.307661  0.304537  1
  C  C55  1  0.107811  0.470094  0.835601  1
  Cl  Cl56  1  0.908415  0.805066  0.255868  1
  Cl  Cl57  1  0.412493  0.805872  0.310533  1
  Cl  Cl58  1  0.887943  0.973054  0.583353  1
  Cl  Cl59  1  0.884021  0.038839  0.472717  1
  Cl  Cl60  1  0.909324  0.864411  0.802968  1
  Cl  Cl61  1  0.912493  0.805872  0.689467  1
  Cl  Cl62  1  0.387830  0.948851  0.858358  1
  Cl  Cl63  1  0.410812  0.870581  0.632667  1
  Cl  Cl64  1  0.409324  0.864411  0.197032  1
  Cl  Cl65  1  0.408415  0.805066  0.744132  1
  Cl  Cl66  1  0.863271  0.092957  0.026927  1
  Cl  Cl67  1  0.365357  0.037208  0.087279  1
  Cl  Cl68  1  0.384021  0.038839  0.527283  1
  Cl  Cl69  1  0.387943  0.973054  0.416647  1
  Cl  Cl70  1  0.865357  0.037208  0.912721  1
  Cl  Cl71  1  0.910812  0.870581  0.367333  1
  Cl  Cl72  1  0.363271  0.092957  0.973073  1
  Cl  Cl73  1  0.887830  0.948851  0.141642  1
