# generated using pymatgen
data_Ca19Ag8N7
_symmetry_space_group_name_H-M   'P 1'
_cell_length_a   10.31511614
_cell_length_b   10.31511614
_cell_length_c   10.31511614
_cell_angle_alpha   60.00000000
_cell_angle_beta   60.00000000
_cell_angle_gamma   60.00000000
_symmetry_Int_Tables_number   1
_chemical_formula_structural   Ca19Ag8N7
_chemical_formula_sum   'Ca19 Ag8 N7'
_cell_volume   776.08156721
_cell_formula_units_Z   1
loop_
 _symmetry_equiv_pos_site_id
 _symmetry_equiv_pos_as_xyz
  1  'x, y, z'
loop_
 _atom_site_type_symbol
 _atom_site_label
 _atom_site_symmetry_multiplicity
 _atom_site_fract_x
 _atom_site_fract_y
 _atom_site_fract_z
 _atom_site_occupancy
  N  N0  1  0.000000  0.000000  0.000000  1
  N  N1  1  0.674094  0.325906  0.325906  1
  N  N2  1  0.674094  0.325906  0.674094  1
  N  N3  1  0.325906  0.674094  0.325906  1
  N  N4  1  0.674094  0.674094  0.325906  1
  N  N5  1  0.325906  0.325906  0.674094  1
  N  N6  1  0.325906  0.674094  0.674094  1
  Ca  Ca7  1  0.170738  0.829262  0.500000  1
  Ca  Ca8  1  0.500000  0.500000  0.500000  1
  Ca  Ca9  1  0.165139  0.834861  0.834861  1
  Ca  Ca10  1  0.165139  0.165139  0.834861  1
  Ca  Ca11  1  0.834861  0.834861  0.165139  1
  Ca  Ca12  1  0.165139  0.834861  0.165139  1
  Ca  Ca13  1  0.834861  0.165139  0.834861  1
  Ca  Ca14  1  0.834861  0.165139  0.165139  1
  Ca  Ca15  1  0.829262  0.170738  0.500000  1
  Ca  Ca16  1  0.829262  0.500000  0.500000  1
  Ca  Ca17  1  0.500000  0.170738  0.829262  1
  Ca  Ca18  1  0.829262  0.500000  0.170738  1
  Ca  Ca19  1  0.500000  0.170738  0.500000  1
  Ca  Ca20  1  0.500000  0.500000  0.829262  1
  Ca  Ca21  1  0.500000  0.500000  0.170738  1
  Ca  Ca22  1  0.500000  0.829262  0.170738  1
  Ca  Ca23  1  0.170738  0.500000  0.829262  1
  Ca  Ca24  1  0.500000  0.829262  0.500000  1
  Ca  Ca25  1  0.170738  0.500000  0.500000  1
  Ag  Ag26  1  0.823822  0.823822  0.823822  1
  Ag  Ag27  1  0.176178  0.176178  0.471466  1
  Ag  Ag28  1  0.176178  0.471466  0.176178  1
  Ag  Ag29  1  0.471466  0.176178  0.176178  1
  Ag  Ag30  1  0.823822  0.528534  0.823822  1
  Ag  Ag31  1  0.528534  0.823822  0.823822  1
  Ag  Ag32  1  0.823822  0.823822  0.528534  1
  Ag  Ag33  1  0.176178  0.176178  0.176178  1
