# generated using pymatgen
data_MgAl2O4
_symmetry_space_group_name_H-M   'P 1'
_cell_length_a   5.77074367
_cell_length_b   5.77074370
_cell_length_c   34.67616848
_cell_angle_alpha   60.04932114
_cell_angle_beta   60.04932098
_cell_angle_gamma   60.00000018
_symmetry_Int_Tables_number   1
_chemical_formula_structural   MgAl2O4
_chemical_formula_sum   'Mg12 Al24 O48'
_cell_volume   817.15235331
_cell_formula_units_Z   12
loop_
 _symmetry_equiv_pos_site_id
 _symmetry_equiv_pos_as_xyz
  1  'x, y, z'
loop_
 _atom_site_type_symbol
 _atom_site_label
 _atom_site_symmetry_multiplicity
 _atom_site_fract_x
 _atom_site_fract_y
 _atom_site_fract_z
 _atom_site_occupancy
  Al  Al0  1  0.495834  0.010438  0.082982  1
  Al  Al1  1  0.495834  0.495834  0.082982  1
  Al  Al2  1  0.496587  0.004230  0.250433  1
  Al  Al3  1  0.010438  0.495834  0.082982  1
  Al  Al4  1  0.496587  0.496587  0.250433  1
  Al  Al5  1  0.880876  0.880876  0.142895  1
  Al  Al6  1  0.499656  0.499656  0.333505  1
  Al  Al7  1  0.500381  0.000219  0.416504  1
  Al  Al8  1  0.004230  0.496587  0.250433  1
  Al  Al9  1  0.500381  0.500381  0.416504  1
  Al  Al10  1  0.500296  0.500296  0.499852  1
  Al  Al11  1  0.500198  0.000644  0.583160  1
  Al  Al12  1  0.000219  0.500381  0.416504  1
  Al  Al13  1  0.500198  0.500198  0.583160  1
  Al  Al14  1  0.001297  0.500196  0.749718  1
  Al  Al15  1  0.500862  0.500862  0.666236  1
  Al  Al16  1  0.500196  0.001297  0.749718  1
  Al  Al17  1  0.000644  0.500198  0.583160  1
  Al  Al18  1  0.500196  0.500196  0.749718  1
  Al  Al19  1  0.006197  0.498171  0.916244  1
  Al  Al20  1  0.501953  0.501953  0.832357  1
  Al  Al21  1  0.498171  0.006197  0.916244  1
  Al  Al22  1  0.498171  0.498171  0.916244  1
  Al  Al23  1  0.876439  0.876439  0.978447  1
  Mg  Mg24  1  0.120880  0.120880  0.022893  1
  Mg  Mg25  1  0.498297  0.498297  0.000851  1
  Mg  Mg26  1  0.120946  0.120946  0.189527  1
  Mg  Mg27  1  0.497560  0.497560  0.167887  1
  Mg  Mg28  1  0.123396  0.123396  0.354969  1
  Mg  Mg29  1  0.125622  0.125622  0.520522  1
  Mg  Mg30  1  0.877954  0.877954  0.311023  1
  Mg  Mg31  1  0.125823  0.125823  0.687089  1
  Mg  Mg32  1  0.875085  0.875085  0.479125  1
  Mg  Mg33  1  0.125175  0.125175  0.854079  1
  Mg  Mg34  1  0.875449  0.875449  0.645608  1
  Mg  Mg35  1  0.873911  0.873911  0.813045  1
  O  O36  1  0.253761  0.253761  0.046695  1
  O  O37  1  0.260073  0.260073  0.119964  1
  O  O38  1  0.253761  0.712311  0.046695  1
  O  O39  1  0.712311  0.253761  0.046695  1
  O  O40  1  0.250490  0.250490  0.214619  1
  O  O41  1  0.271918  0.751431  0.120870  1
  O  O42  1  0.745224  0.745224  0.044055  1
  O  O43  1  0.751431  0.271918  0.120870  1
  O  O44  1  0.260264  0.260264  0.286535  1
  O  O45  1  0.250490  0.711302  0.214619  1
  O  O46  1  0.751431  0.751431  0.120870  1
  O  O47  1  0.711302  0.250490  0.214619  1
  O  O48  1  0.263786  0.263786  0.377269  1
  O  O49  1  0.297584  0.734941  0.288756  1
  O  O50  1  0.734941  0.297584  0.288756  1
  O  O51  1  0.750418  0.750418  0.208124  1
  O  O52  1  0.263740  0.263740  0.451463  1
  O  O53  1  0.263786  0.708814  0.377269  1
  O  O54  1  0.734941  0.734941  0.288756  1
  O  O55  1  0.708814  0.263786  0.377269  1
  O  O56  1  0.263218  0.263218  0.544041  1
  O  O57  1  0.291128  0.736444  0.455997  1
  O  O58  1  0.736444  0.291128  0.455997  1
  O  O59  1  0.263218  0.709317  0.544041  1
  O  O60  1  0.737802  0.737802  0.381099  1
  O  O61  1  0.263601  0.263601  0.618199  1
  O  O62  1  0.736444  0.736444  0.455997  1
  O  O63  1  0.709317  0.263218  0.544041  1
  O  O64  1  0.262976  0.262976  0.710849  1
  O  O65  1  0.290473  0.735847  0.622972  1
  O  O66  1  0.263214  0.263214  0.785060  1
  O  O67  1  0.735847  0.290473  0.622972  1
  O  O68  1  0.736145  0.736145  0.548594  1
  O  O69  1  0.262976  0.708950  0.710849  1
  O  O70  1  0.735847  0.735847  0.622972  1
  O  O71  1  0.708950  0.262976  0.710849  1
  O  O72  1  0.265695  0.265695  0.876698  1
  O  O73  1  0.289639  0.736319  0.789621  1
  O  O74  1  0.736319  0.289639  0.789621  1
  O  O75  1  0.735906  0.735906  0.715380  1
  O  O76  1  0.262770  0.262770  0.951948  1
  O  O77  1  0.265695  0.708420  0.876698  1
  O  O78  1  0.736319  0.736319  0.789621  1
  O  O79  1  0.708420  0.265695  0.876698  1
  O  O80  1  0.263530  0.755001  0.954411  1
  O  O81  1  0.755001  0.263530  0.954411  1
  O  O82  1  0.731698  0.731698  0.884151  1
  O  O83  1  0.755001  0.755001  0.954411  1
