# generated using pymatgen
data_Ta6Fe16Si7
_symmetry_space_group_name_H-M   'P 1'
_cell_length_a   7.92545532
_cell_length_b   7.92545479
_cell_length_c   7.92545511
_cell_angle_alpha   59.99999870
_cell_angle_beta   60.00000093
_cell_angle_gamma   59.99999841
_symmetry_Int_Tables_number   1
_chemical_formula_structural   Ta6Fe16Si7
_chemical_formula_sum   'Ta6 Fe16 Si7'
_cell_volume   352.01212350
_cell_formula_units_Z   1
loop_
 _symmetry_equiv_pos_site_id
 _symmetry_equiv_pos_as_xyz
  1  'x, y, z'
loop_
 _atom_site_type_symbol
 _atom_site_label
 _atom_site_symmetry_multiplicity
 _atom_site_fract_x
 _atom_site_fract_y
 _atom_site_fract_z
 _atom_site_occupancy
  Si  Si0  1  0.500000  0.500000  0.500000  1
  Si  Si1  1  0.500000  0.000000  0.000000  1
  Si  Si2  1  0.000000  0.000000  0.500000  1
  Si  Si3  1  0.500000  0.500000  0.000000  1
  Si  Si4  1  0.000000  0.500000  0.500000  1
  Si  Si5  1  0.000000  0.500000  0.000000  1
  Si  Si6  1  0.500000  0.000000  0.500000  1
  Ta  Ta7  1  0.796407  0.203593  0.203593  1
  Ta  Ta8  1  0.796407  0.796407  0.203593  1
  Ta  Ta9  1  0.203593  0.203593  0.796407  1
  Ta  Ta10  1  0.796407  0.203593  0.796407  1
  Ta  Ta11  1  0.203593  0.796407  0.203593  1
  Ta  Ta12  1  0.203593  0.796407  0.796407  1
  Fe  Fe13  1  0.173241  0.173241  0.173241  1
  Fe  Fe14  1  0.826759  0.826759  0.519722  1
  Fe  Fe15  1  0.519722  0.826759  0.826759  1
  Fe  Fe16  1  0.826759  0.519722  0.826759  1
  Fe  Fe17  1  0.480278  0.173241  0.173241  1
  Fe  Fe18  1  0.173241  0.480278  0.173241  1
  Fe  Fe19  1  0.173241  0.173241  0.480278  1
  Fe  Fe20  1  0.826759  0.826759  0.826759  1
  Fe  Fe21  1  0.380251  0.380251  0.380251  1
  Fe  Fe22  1  0.619749  0.619749  0.140754  1
  Fe  Fe23  1  0.140754  0.619749  0.619749  1
  Fe  Fe24  1  0.619749  0.140754  0.619749  1
  Fe  Fe25  1  0.859246  0.380251  0.380251  1
  Fe  Fe26  1  0.380251  0.859246  0.380251  1
  Fe  Fe27  1  0.380251  0.380251  0.859246  1
  Fe  Fe28  1  0.619749  0.619749  0.619749  1
