# generated using pymatgen
data_Er2CdSe4
_symmetry_space_group_name_H-M   'P 1'
_cell_length_a   8.31615297
_cell_length_b   8.31615302
_cell_length_c   49.83392715
_cell_angle_alpha   59.95817543
_cell_angle_beta   59.95817524
_cell_angle_gamma   60.00000163
_symmetry_Int_Tables_number   1
_chemical_formula_structural   Er2CdSe4
_chemical_formula_sum   'Er24 Cd12 Se48'
_cell_volume   2435.45561849
_cell_formula_units_Z   12
loop_
 _symmetry_equiv_pos_site_id
 _symmetry_equiv_pos_as_xyz
  1  'x, y, z'
loop_
 _atom_site_type_symbol
 _atom_site_label
 _atom_site_symmetry_multiplicity
 _atom_site_fract_x
 _atom_site_fract_y
 _atom_site_fract_z
 _atom_site_occupancy
  Cd  Cd0  1  0.247890  0.247890  0.042722  1
  Cd  Cd1  1  0.247143  0.247143  0.209762  1
  Cd  Cd2  1  0.621416  0.621416  0.022625  1
  Cd  Cd3  1  0.249339  0.249339  0.375330  1
  Cd  Cd4  1  0.621902  0.621902  0.189049  1
  Cd  Cd5  1  0.000135  0.000135  0.499932  1
  Cd  Cd6  1  0.249956  0.249956  0.541689  1
  Cd  Cd7  1  0.000490  0.000490  0.333088  1
  Cd  Cd8  1  0.000193  0.000193  0.833236  1
  Cd  Cd9  1  0.250044  0.250044  0.708311  1
  Cd  Cd10  1  0.250482  0.250482  0.874759  1
  Cd  Cd11  1  0.000221  0.000221  0.666556  1
  Er  Er12  1  0.001262  0.001262  0.999369  1
  Er  Er13  1  0.131392  0.622838  0.103822  1
  Er  Er14  1  0.622838  0.131392  0.103822  1
  Er  Er15  1  0.622838  0.622838  0.103822  1
  Er  Er16  1  0.129120  0.623075  0.270788  1
  Er  Er17  1  0.623075  0.129120  0.270788  1
  Er  Er18  1  0.002156  0.002156  0.165589  1
  Er  Er19  1  0.125058  0.625069  0.437467  1
  Er  Er20  1  0.623075  0.623075  0.270788  1
  Er  Er21  1  0.625069  0.125058  0.437467  1
  Er  Er22  1  0.625460  0.625460  0.353937  1
  Er  Er23  1  0.625069  0.625069  0.437467  1
  Er  Er24  1  0.125089  0.625032  0.604141  1
  Er  Er25  1  0.625077  0.625077  0.520795  1
  Er  Er26  1  0.625032  0.125089  0.604141  1
  Er  Er27  1  0.625032  0.625032  0.604141  1
  Er  Er28  1  0.125137  0.625127  0.770768  1
  Er  Er29  1  0.625113  0.625113  0.687443  1
  Er  Er30  1  0.625127  0.125137  0.770768  1
  Er  Er31  1  0.625127  0.625127  0.770768  1
  Er  Er32  1  0.126969  0.624853  0.937221  1
  Er  Er33  1  0.625572  0.625572  0.853881  1
  Er  Er34  1  0.624853  0.126969  0.937221  1
  Er  Er35  1  0.624853  0.624853  0.937221  1
  Se  Se36  1  0.381618  0.381618  0.063859  1
  Se  Se37  1  0.381618  0.853611  0.063859  1
  Se  Se38  1  0.381707  0.381707  0.142479  1
  Se  Se39  1  0.853611  0.381618  0.063859  1
  Se  Se40  1  0.400265  0.867685  0.144060  1
  Se  Se41  1  0.381331  0.381331  0.230780  1
  Se  Se42  1  0.867685  0.400265  0.144060  1
  Se  Se43  1  0.867473  0.867473  0.066264  1
  Se  Se44  1  0.381331  0.852661  0.230780  1
  Se  Se45  1  0.381799  0.381799  0.309100  1
  Se  Se46  1  0.867685  0.867685  0.144060  1
  Se  Se47  1  0.852661  0.381331  0.230780  1
  Se  Se48  1  0.382512  0.382512  0.397159  1
  Se  Se49  1  0.398512  0.867233  0.311170  1
  Se  Se50  1  0.867233  0.398512  0.311170  1
  Se  Se51  1  0.867670  0.867670  0.232832  1
  Se  Se52  1  0.382512  0.852023  0.397159  1
  Se  Se53  1  0.382567  0.382567  0.475383  1
  Se  Se54  1  0.867233  0.867233  0.311170  1
  Se  Se55  1  0.852023  0.382512  0.397159  1
  Se  Se56  1  0.397780  0.867271  0.477946  1
  Se  Se57  1  0.382503  0.382503  0.563808  1
  Se  Se58  1  0.867271  0.397780  0.477946  1
  Se  Se59  1  0.867469  0.867469  0.399598  1
  Se  Se60  1  0.382503  0.852143  0.563808  1
  Se  Se61  1  0.382549  0.382549  0.642058  1
  Se  Se62  1  0.867271  0.867271  0.477946  1
  Se  Se63  1  0.852143  0.382503  0.563808  1
  Se  Se64  1  0.397775  0.867268  0.644614  1
  Se  Se65  1  0.382470  0.382470  0.730494  1
  Se  Se66  1  0.867350  0.867350  0.566325  1
  Se  Se67  1  0.382470  0.852099  0.730494  1
  Se  Se68  1  0.867268  0.397775  0.644614  1
  Se  Se69  1  0.382630  0.382630  0.808685  1
  Se  Se70  1  0.867268  0.867268  0.644614  1
  Se  Se71  1  0.852099  0.382470  0.730494  1
  Se  Se72  1  0.397731  0.867316  0.811273  1
  Se  Se73  1  0.382841  0.382841  0.896939  1
  Se  Se74  1  0.867337  0.867337  0.732998  1
  Se  Se75  1  0.867316  0.397731  0.811273  1
  Se  Se76  1  0.382841  0.852682  0.896939  1
  Se  Se77  1  0.382544  0.382544  0.975395  1
  Se  Se78  1  0.867316  0.867316  0.811273  1
  Se  Se79  1  0.852682  0.382841  0.896939  1
  Se  Se80  1  0.399086  0.868210  0.977416  1
  Se  Se81  1  0.868210  0.399086  0.977416  1
  Se  Se82  1  0.867410  0.867410  0.899628  1
  Se  Se83  1  0.868210  0.868210  0.977416  1
