# generated using pymatgen
data_Mg7TiH16
_symmetry_space_group_name_H-M   'P 1'
_cell_length_a   6.65935932
_cell_length_b   6.65946913
_cell_length_c   6.65940356
_cell_angle_alpha   59.99769411
_cell_angle_beta   59.99784386
_cell_angle_gamma   59.99770980
_symmetry_Int_Tables_number   1
_chemical_formula_structural   Mg7TiH16
_chemical_formula_sum   'Mg7 Ti1 H16'
_cell_volume   208.81910593
_cell_formula_units_Z   1
loop_
 _symmetry_equiv_pos_site_id
 _symmetry_equiv_pos_as_xyz
  1  'x, y, z'
loop_
 _atom_site_type_symbol
 _atom_site_label
 _atom_site_symmetry_multiplicity
 _atom_site_fract_x
 _atom_site_fract_y
 _atom_site_fract_z
 _atom_site_occupancy
  Mg  Mg0  1  0.499989  0.500029  0.499995  1
  Mg  Mg1  1  0.499996  0.000008  0.000012  1
  Mg  Mg2  1  0.500003  0.499984  -0.000005  1
  Mg  Mg3  1  0.499983  -0.000008  0.500001  1
  Mg  Mg4  1  0.000018  0.500011  0.500000  1
  Mg  Mg5  1  0.000001  -0.000023  0.500002  1
  Mg  Mg6  1  0.000009  0.499995  0.999996  1
  Ti  Ti7  1  0.999992  0.000005  1.000000  1
  H  H8  1  0.358325  0.880561  0.880556  1
  H  H9  1  0.880560  0.880560  0.358325  1
  H  H10  1  0.880559  0.358322  0.880561  1
  H  H11  1  0.880560  0.880562  0.880559  1
  H  H12  1  0.641677  0.119440  0.119439  1
  H  H13  1  0.119443  0.119441  0.641676  1
  H  H14  1  0.119440  0.641675  0.119442  1
  H  H15  1  0.119439  0.119439  0.119439  1
  H  H16  1  0.116524  0.627824  0.627823  1
  H  H17  1  0.627826  0.627822  0.116527  1
  H  H18  1  0.627828  0.116527  0.627823  1
  H  H19  1  0.627823  0.627823  0.627826  1
  H  H20  1  0.883471  0.372177  0.372174  1
  H  H21  1  0.372179  0.372176  0.883475  1
  H  H22  1  0.372181  0.883472  0.372177  1
  H  H23  1  0.372176  0.372176  0.372178  1
