# generated using pymatgen
data_MoH4O5
_symmetry_space_group_name_H-M   'P 1'
_cell_length_a   7.85075749
_cell_length_b   6.85192621
_cell_length_c   3.99701156
_cell_angle_alpha   89.99780604
_cell_angle_beta   90.10930435
_cell_angle_gamma   91.20425224
_symmetry_Int_Tables_number   1
_chemical_formula_structural   MoH4O5
_chemical_formula_sum   'Mo2 H8 O10'
_cell_volume   214.96260636
_cell_formula_units_Z   2
loop_
 _symmetry_equiv_pos_site_id
 _symmetry_equiv_pos_as_xyz
  1  'x, y, z'
loop_
 _atom_site_type_symbol
 _atom_site_label
 _atom_site_symmetry_multiplicity
 _atom_site_fract_x
 _atom_site_fract_y
 _atom_site_fract_z
 _atom_site_occupancy
  Mo  Mo0  1  0.717247  0.993598  0.914899  1
  Mo  Mo1  1  0.217008  0.993468  0.084499  1
  H  H2  1  0.069702  0.454960  0.408189  1
  H  H3  1  0.928552  0.584208  0.565354  1
  H  H4  1  0.428410  0.584261  0.434417  1
  H  H5  1  0.569554  0.454943  0.592171  1
  H  H6  1  0.870451  0.331073  0.894200  1
  H  H7  1  0.683169  0.647242  0.143093  1
  H  H8  1  0.183236  0.647223  0.856257  1
  H  H9  1  0.370578  0.331039  0.106523  1
  O  O10  1  0.995569  0.999631  0.011386  1
  O  O11  1  0.495438  0.999870  0.987484  1
  O  O12  1  0.025197  0.503993  0.621102  1
  O  O13  1  0.525302  0.503488  0.379423  1
  O  O14  1  0.737698  0.985648  0.475890  1
  O  O15  1  0.238056  0.985563  0.523740  1
  O  O16  1  0.761428  0.270953  0.965990  1
  O  O17  1  0.756587  0.717317  0.977579  1
  O  O18  1  0.256870  0.717235  0.022147  1
  O  O19  1  0.261818  0.270820  0.034163  1
