# generated using pymatgen
data_Al(HO)3
_symmetry_space_group_name_H-M   'P 1'
_cell_length_a   9.02519780
_cell_length_b   5.21406673
_cell_length_c   9.58300559
_cell_angle_alpha   90.00000000
_cell_angle_beta   91.16459034
_cell_angle_gamma   90.00000000
_symmetry_Int_Tables_number   1
_chemical_formula_structural   Al(HO)3
_chemical_formula_sum   'Al8 H24 O24'
_cell_volume   450.86376798
_cell_formula_units_Z   8
loop_
 _symmetry_equiv_pos_site_id
 _symmetry_equiv_pos_as_xyz
  1  'x, y, z'
loop_
 _atom_site_type_symbol
 _atom_site_label
 _atom_site_symmetry_multiplicity
 _atom_site_fract_x
 _atom_site_fract_y
 _atom_site_fract_z
 _atom_site_occupancy
  Al  Al0  1  0.336681  0.998199  0.522493  1
  Al  Al1  1  0.836681  0.501801  0.022493  1
  Al  Al2  1  0.670674  0.990739  0.522506  1
  Al  Al3  1  0.170674  0.509261  0.022506  1
  Al  Al4  1  0.169849  0.500477  0.522553  1
  Al  Al5  1  0.669849  0.999523  0.022553  1
  Al  Al6  1  0.837244  0.494213  0.522359  1
  Al  Al7  1  0.337244  0.005787  0.022359  1
  H  H8  1  0.318440  0.691695  0.722110  1
  H  H9  1  0.818440  0.808305  0.222110  1
  H  H10  1  0.600325  0.394990  0.443879  1
  H  H11  1  0.681440  0.323439  0.221771  1
  H  H12  1  0.100325  0.105010  0.943879  1
  H  H13  1  0.181440  0.176561  0.721772  1
  H  H14  1  0.836365  0.162441  0.719851  1
  H  H15  1  0.336365  0.337559  0.219851  1
  H  H16  1  0.096711  0.899515  0.457635  1
  H  H17  1  0.596711  0.600485  0.957635  1
  H  H18  1  0.003558  0.638651  0.720056  1
  H  H19  1  0.503558  0.861349  0.220056  1
  H  H20  1  0.004742  0.193124  0.456541  1
  H  H21  1  0.504742  0.306876  0.956541  1
  H  H22  1  0.508892  0.158116  0.718903  1
  H  H23  1  0.008892  0.341884  0.218903  1
  H  H24  1  0.488032  0.689807  0.403598  1
  H  H25  1  0.988032  0.810193  0.903598  1
  H  H26  1  0.899570  0.902561  0.399761  1
  H  H27  1  0.399570  0.597439  0.899761  1
  H  H28  1  0.673233  0.660274  0.717577  1
  H  H29  1  0.173233  0.839726  0.217577  1
  H  H30  1  0.404018  0.400297  0.466651  1
  H  H31  1  0.904018  0.099703  0.966651  1
  O  O32  1  0.319282  0.686736  0.618934  1
  O  O33  1  0.819282  0.813264  0.118934  1
  O  O34  1  0.686954  0.307556  0.408110  1
  O  O35  1  0.186954  0.192444  0.908110  1
  O  O36  1  0.821785  0.177150  0.617881  1
  O  O37  1  0.321785  0.322850  0.117881  1
  O  O38  1  0.179317  0.819843  0.409639  1
  O  O39  1  0.679317  0.680157  0.909639  1
  O  O40  1  0.004567  0.627104  0.617128  1
  O  O41  1  0.504567  0.872896  0.117128  1
  O  O42  1  0.001921  0.358947  0.409160  1
  O  O43  1  0.501921  0.141053  0.909160  1
  O  O44  1  0.507074  0.126283  0.617242  1
  O  O45  1  0.007074  0.373717  0.117242  1
  O  O46  1  0.496191  0.875079  0.404728  1
  O  O47  1  0.996191  0.624921  0.904728  1
  O  O48  1  0.192086  0.186153  0.619190  1
  O  O49  1  0.692086  0.313847  0.119190  1
  O  O50  1  0.809106  0.802992  0.403438  1
  O  O51  1  0.309105  0.697008  0.903438  1
  O  O52  1  0.690670  0.677559  0.616740  1
  O  O53  1  0.190670  0.822441  0.116741  1
  O  O54  1  0.321586  0.325970  0.412290  1
  O  O55  1  0.821586  0.174030  0.912290  1
