# generated using pymatgen
data_Gd3InN
_symmetry_space_group_name_H-M   'P 1'
_cell_length_a   4.89880599
_cell_length_b   4.89703745
_cell_length_c   4.90080234
_cell_angle_alpha   90.06484433
_cell_angle_beta   90.01728319
_cell_angle_gamma   90.00132005
_symmetry_Int_Tables_number   1
_chemical_formula_structural   Gd3InN
_chemical_formula_sum   'Gd3 In1 N1'
_cell_volume   117.56838552
_cell_formula_units_Z   1
loop_
 _symmetry_equiv_pos_site_id
 _symmetry_equiv_pos_as_xyz
  1  'x, y, z'
loop_
 _atom_site_type_symbol
 _atom_site_label
 _atom_site_symmetry_multiplicity
 _atom_site_fract_x
 _atom_site_fract_y
 _atom_site_fract_z
 _atom_site_occupancy
  Gd  Gd0  1  0.500011  -0.000001  0.500061  1
  Gd  Gd1  1  0.000021  0.499977  0.499914  1
  Gd  Gd2  1  0.500000  0.499999  0.000032  1
  In  In3  1  0.000011  0.000003  0.000017  1
  N  N4  1  0.499958  0.500023  0.499976  1
