# generated using pymatgen
data_Lu3NbO7
_symmetry_space_group_name_H-M   'P 1'
_cell_length_a   7.39402225
_cell_length_b   16.83822093
_cell_length_c   9.06689359
_cell_angle_alpha   26.24168555
_cell_angle_beta   35.41219844
_cell_angle_gamma   48.90663479
_symmetry_Int_Tables_number   1
_chemical_formula_structural   Lu3NbO7
_chemical_formula_sum   'Lu6 Nb2 O14'
_cell_volume   276.99229487
_cell_formula_units_Z   2
loop_
 _symmetry_equiv_pos_site_id
 _symmetry_equiv_pos_as_xyz
  1  'x, y, z'
loop_
 _atom_site_type_symbol
 _atom_site_label
 _atom_site_symmetry_multiplicity
 _atom_site_fract_x
 _atom_site_fract_y
 _atom_site_fract_z
 _atom_site_occupancy
  Lu  Lu0  1  0.995774  0.998825  0.005079  1
  Lu  Lu1  1  0.497115  0.998617  0.004402  1
  Lu  Lu2  1  0.401005  0.255298  0.965369  1
  Lu  Lu3  1  0.848354  0.255152  0.019470  1
  Lu  Lu4  1  0.150482  0.743706  0.985517  1
  Lu  Lu5  1  0.592666  0.744554  0.042988  1
  Nb  Nb6  1  0.271619  0.497806  0.001476  1
  Nb  Nb7  1  0.760822  0.499221  0.009964  1
  O  O8  1  0.507149  0.999929  0.242140  1
  O  O9  1  0.327070  0.252667  0.258389  1
  O  O10  1  0.485113  0.000754  0.762356  1
  O  O11  1  0.295789  0.525507  0.168380  1
  O  O12  1  0.348306  0.252001  0.738545  1
  O  O13  1  0.899359  0.251769  0.257865  1
  O  O14  1  0.072150  0.741998  0.281007  1
  O  O15  1  0.753224  0.473898  0.276862  1
  O  O16  1  0.230882  0.525836  0.731539  1
  O  O17  1  0.916937  0.253141  0.738170  1
  O  O18  1  0.660038  0.755622  0.243230  1
  O  O19  1  0.099131  0.739731  0.757282  1
  O  O20  1  0.701056  0.475551  0.826414  1
  O  O21  1  0.668062  0.753963  0.738879  1
