# generated using pymatgen
data_Al(HO)3
_symmetry_space_group_name_H-M   'P 1'
_cell_length_a   8.68240158
_cell_length_b   5.17990507
_cell_length_c   9.53086293
_cell_angle_alpha   90.00000000
_cell_angle_beta   88.58365558
_cell_angle_gamma   90.00000000
_symmetry_Int_Tables_number   1
_chemical_formula_structural   Al(HO)3
_chemical_formula_sum   'Al8 H24 O24'
_cell_volume   428.51022275
_cell_formula_units_Z   8
loop_
 _symmetry_equiv_pos_site_id
 _symmetry_equiv_pos_as_xyz
  1  'x, y, z'
loop_
 _atom_site_type_symbol
 _atom_site_label
 _atom_site_symmetry_multiplicity
 _atom_site_fract_x
 _atom_site_fract_y
 _atom_site_fract_z
 _atom_site_occupancy
  Al  Al0  1  0.325571  0.006223  0.514181  1
  Al  Al1  1  0.825571  0.493777  0.014181  1
  Al  Al2  1  0.689041  0.983861  0.498621  1
  Al  Al3  1  0.189041  0.516139  0.998621  1
  Al  Al4  1  0.168671  0.519696  0.507634  1
  Al  Al5  1  0.668671  0.980304  0.007634  1
  Al  Al6  1  0.828173  0.498238  0.489337  1
  Al  Al7  1  0.328173  0.001762  0.989337  1
  H  H8  1  0.312298  0.700065  0.724190  1
  H  H9  1  0.812298  0.799935  0.224190  1
  H  H10  1  0.706305  0.268620  0.293596  1
  H  H11  1  0.206305  0.231380  0.793596  1
  H  H12  1  0.811982  0.191359  0.708657  1
  H  H13  1  0.311982  0.308641  0.208657  1
  H  H14  1  0.078218  0.910345  0.385799  1
  H  H15  1  0.578218  0.589655  0.885799  1
  H  H16  1  0.959222  0.827312  0.604662  1
  H  H17  1  0.459222  0.672688  0.104662  1
  H  H18  1  0.014269  0.416700  0.299293  1
  H  H19  1  0.514270  0.083300  0.799293  1
  H  H20  1  0.509303  0.301723  0.619370  1
  H  H21  1  0.009303  0.198277  0.119370  1
  H  H22  1  0.504489  0.670757  0.415247  1
  H  H23  1  0.490850  0.858289  0.272253  1
  H  H24  1  0.004489  0.829243  0.915247  1
  H  H25  1  0.990850  0.641711  0.772253  1
  H  H26  1  0.080194  0.131973  0.632434  1
  H  H27  1  0.580194  0.368027  0.132434  1
  H  H28  1  0.679977  0.679528  0.703682  1
  H  H29  1  0.179977  0.820472  0.203682  1
  H  H30  1  0.440975  0.353818  0.394390  1
  H  H31  1  0.940975  0.146182  0.894390  1
  O  O32  1  0.305988  0.702644  0.613877  1
  O  O33  1  0.805988  0.797356  0.113877  1
  O  O34  1  0.680362  0.293442  0.394952  1
  O  O35  1  0.180362  0.206558  0.894952  1
  O  O36  1  0.831538  0.173719  0.606647  1
  O  O37  1  0.331538  0.326281  0.106647  1
  O  O38  1  0.180319  0.831444  0.395843  1
  O  O39  1  0.680319  0.668556  0.895843  1
  O  O40  1  0.986951  0.646365  0.623967  1
  O  O41  1  0.486951  0.853635  0.123967  1
  O  O42  1  0.012195  0.378077  0.400747  1
  O  O43  1  0.512195  0.121923  0.900747  1
  O  O44  1  0.505093  0.113686  0.610714  1
  O  O45  1  0.005093  0.386314  0.110714  1
  O  O46  1  0.493179  0.851035  0.386984  1
  O  O47  1  0.993179  0.648965  0.886984  1
  O  O48  1  0.181786  0.211934  0.618031  1
  O  O49  1  0.681786  0.288066  0.118031  1
  O  O50  1  0.817149  0.796429  0.385124  1
  O  O51  1  0.317149  0.703571  0.885124  1
  O  O52  1  0.672969  0.668834  0.601152  1
  O  O53  1  0.172969  0.831166  0.101152  1
  O  O54  1  0.330748  0.314660  0.400505  1
  O  O55  1  0.830748  0.185340  0.900505  1
