# generated using pymatgen
data_GdInPd2
_symmetry_space_group_name_H-M   'P 1'
_cell_length_a   4.84906496
_cell_length_b   4.84356783
_cell_length_c   4.85285258
_cell_angle_alpha   60.05276629
_cell_angle_beta   59.89986343
_cell_angle_gamma   59.97042656
_symmetry_Int_Tables_number   1
_chemical_formula_structural   GdInPd2
_chemical_formula_sum   'Gd1 In1 Pd2'
_cell_volume   80.54735450
_cell_formula_units_Z   1
loop_
 _symmetry_equiv_pos_site_id
 _symmetry_equiv_pos_as_xyz
  1  'x, y, z'
loop_
 _atom_site_type_symbol
 _atom_site_label
 _atom_site_symmetry_multiplicity
 _atom_site_fract_x
 _atom_site_fract_y
 _atom_site_fract_z
 _atom_site_occupancy
  Gd  Gd0  1  0.499980  0.500035  0.499993  1
  In  In1  1  0.000019  -0.000021  0.000002  1
  Pd  Pd2  1  0.250124  0.249935  0.250044  1
  Pd  Pd3  1  0.749877  0.750051  0.749960  1
