# generated using pymatgen
data_Eu2H6Ru
_symmetry_space_group_name_H-M   'P 1'
_cell_length_a   5.28019807
_cell_length_b   5.28019807
_cell_length_c   5.28019807
_cell_angle_alpha   60.00000000
_cell_angle_beta   60.00000000
_cell_angle_gamma   60.00000000
_symmetry_Int_Tables_number   1
_chemical_formula_structural   Eu2H6Ru
_chemical_formula_sum   'Eu2 H6 Ru1'
_cell_volume   104.09638403
_cell_formula_units_Z   1
loop_
 _symmetry_equiv_pos_site_id
 _symmetry_equiv_pos_as_xyz
  1  'x, y, z'
loop_
 _atom_site_type_symbol
 _atom_site_label
 _atom_site_symmetry_multiplicity
 _atom_site_fract_x
 _atom_site_fract_y
 _atom_site_fract_z
 _atom_site_occupancy
  Eu  Eu0  1  0.250000  0.250000  0.250000  1
  Eu  Eu1  1  0.750000  0.750000  0.750000  1
  H  H2  1  0.768873  0.231127  0.231127  1
  H  H3  1  0.768873  0.231127  0.768873  1
  H  H4  1  0.768873  0.768873  0.231127  1
  H  H5  1  0.231127  0.768873  0.768873  1
  H  H6  1  0.231127  0.768873  0.231127  1
  H  H7  1  0.231127  0.231127  0.768873  1
  Ru  Ru8  1  -0.000000  0.000000  0.000000  1
