# generated using pymatgen
data_NaClO2
_symmetry_space_group_name_H-M   'P 1'
_cell_length_a   4.85335767
_cell_length_b   9.30637556
_cell_length_c   7.94548999
_cell_angle_alpha   31.51483182
_cell_angle_beta   54.21848574
_cell_angle_gamma   58.66948942
_symmetry_Int_Tables_number   1
_chemical_formula_structural   NaClO2
_chemical_formula_sum   'Na2 Cl2 O4'
_cell_volume   151.98764134
_cell_formula_units_Z   2
loop_
 _symmetry_equiv_pos_site_id
 _symmetry_equiv_pos_as_xyz
  1  'x, y, z'
loop_
 _atom_site_type_symbol
 _atom_site_label
 _atom_site_symmetry_multiplicity
 _atom_site_fract_x
 _atom_site_fract_y
 _atom_site_fract_z
 _atom_site_occupancy
  Na  Na0  1  0.029789  0.003749  0.000944  1
  Na  Na1  1  0.030668  0.502989  0.995889  1
  Cl  Cl2  1  0.570472  0.431174  0.564784  1
  Cl  Cl3  1  0.559516  0.931410  0.572590  1
  O  O4  1  0.502198  0.288385  0.906582  1
  O  O5  1  0.896941  0.281788  0.516077  1
  O  O6  1  0.895975  0.792500  0.513499  1
  O  O7  1  0.490495  0.784343  0.917652  1
