# generated using pymatgen
data_Nb6Ni16Ge7
_symmetry_space_group_name_H-M   'P 1'
_cell_length_a   8.09435918
_cell_length_b   8.09451666
_cell_length_c   8.09510531
_cell_angle_alpha   59.99448025
_cell_angle_beta   59.99653928
_cell_angle_gamma   59.99393635
_symmetry_Int_Tables_number   1
_chemical_formula_structural   Nb6Ni16Ge7
_chemical_formula_sum   'Nb6 Ni16 Ge7'
_cell_volume   375.00021415
_cell_formula_units_Z   1
loop_
 _symmetry_equiv_pos_site_id
 _symmetry_equiv_pos_as_xyz
  1  'x, y, z'
loop_
 _atom_site_type_symbol
 _atom_site_label
 _atom_site_symmetry_multiplicity
 _atom_site_fract_x
 _atom_site_fract_y
 _atom_site_fract_z
 _atom_site_occupancy
  Nb  Nb0  1  0.801034  0.801035  0.198972  1
  Nb  Nb1  1  0.801036  0.198962  0.801028  1
  Nb  Nb2  1  0.198959  0.198962  0.801052  1
  Nb  Nb3  1  0.198943  0.801059  0.198971  1
  Nb  Nb4  1  0.198979  0.801019  0.801011  1
  Nb  Nb5  1  0.801057  0.198950  0.198972  1
  Ni  Ni6  1  0.617197  0.148342  0.617227  1
  Ni  Ni7  1  0.497535  0.167488  0.167478  1
  Ni  Ni8  1  0.382793  0.382778  0.851654  1
  Ni  Ni9  1  0.832473  0.832471  0.502593  1
  Ni  Ni10  1  0.167485  0.167488  0.497537  1
  Ni  Ni11  1  0.832497  0.502541  0.832464  1
  Ni  Ni12  1  0.167471  0.497550  0.167481  1
  Ni  Ni13  1  0.617209  0.617206  0.148358  1
  Ni  Ni14  1  0.167514  0.167516  0.167497  1
  Ni  Ni15  1  0.382779  0.851657  0.382764  1
  Ni  Ni16  1  0.617194  0.617203  0.617213  1
  Ni  Ni17  1  0.851651  0.382772  0.382784  1
  Ni  Ni18  1  0.382802  0.382785  0.382784  1
  Ni  Ni19  1  0.832492  0.832503  0.832480  1
  Ni  Ni20  1  0.148352  0.617208  0.617211  1
  Ni  Ni21  1  0.502526  0.832513  0.832479  1
  Ge  Ge22  1  -0.000034  0.500032  0.500037  1
  Ge  Ge23  1  0.500034  -0.000028  0.500011  1
  Ge  Ge24  1  0.500006  0.500009  0.500015  1
  Ge  Ge25  1  -0.000054  0.500030  -0.000039  1
  Ge  Ge26  1  0.500031  0.999953  -0.000018  1
  Ge  Ge27  1  0.500057  0.500029  -0.000029  1
  Ge  Ge28  1  -0.000019  -0.000033  0.500014  1
