# generated using pymatgen
data_NaY2In
_symmetry_space_group_name_H-M   'P 1'
_cell_length_a   6.07037745
_cell_length_b   6.05995175
_cell_length_c   6.06307940
_cell_angle_alpha   60.36954693
_cell_angle_beta   60.51815508
_cell_angle_gamma   60.07755900
_symmetry_Int_Tables_number   1
_chemical_formula_structural   NaY2In
_chemical_formula_sum   'Na1 Y2 In1'
_cell_volume   158.85474419
_cell_formula_units_Z   1
loop_
 _symmetry_equiv_pos_site_id
 _symmetry_equiv_pos_as_xyz
  1  'x, y, z'
loop_
 _atom_site_type_symbol
 _atom_site_label
 _atom_site_symmetry_multiplicity
 _atom_site_fract_x
 _atom_site_fract_y
 _atom_site_fract_z
 _atom_site_occupancy
  Na  Na0  1  0.499797  0.500004  0.500486  1
  Y  Y1  1  0.249215  0.249473  0.250055  1
  Y  Y2  1  0.750947  0.750205  0.750174  1
  In  In3  1  0.000041  0.000318  0.999285  1
