# generated using pymatgen
data_Al(HO)3
_symmetry_space_group_name_H-M   'P 1'
_cell_length_a   8.66745884
_cell_length_b   5.23085326
_cell_length_c   9.46592639
_cell_angle_alpha   90.00000000
_cell_angle_beta   90.00000000
_cell_angle_gamma   91.43167002
_symmetry_Int_Tables_number   1
_chemical_formula_structural   Al(HO)3
_chemical_formula_sum   'Al8 H24 O24'
_cell_volume   429.03414242
_cell_formula_units_Z   8
loop_
 _symmetry_equiv_pos_site_id
 _symmetry_equiv_pos_as_xyz
  1  'x, y, z'
loop_
 _atom_site_type_symbol
 _atom_site_label
 _atom_site_symmetry_multiplicity
 _atom_site_fract_x
 _atom_site_fract_y
 _atom_site_fract_z
 _atom_site_occupancy
  Al  Al0  1  0.828094  0.012884  0.500725  1
  Al  Al1  1  0.327958  0.495010  0.497975  1
  Al  Al2  1  0.168515  0.505269  0.997658  1
  Al  Al3  1  0.667041  0.985964  0.002231  1
  Al  Al4  1  0.167041  0.985964  0.497769  1
  Al  Al5  1  0.668515  0.505269  0.502342  1
  Al  Al6  1  0.827958  0.495010  0.002025  1
  Al  Al7  1  0.328094  0.012884  0.999275  1
  H  H8  1  0.501451  0.801500  0.629797  1
  H  H9  1  0.972734  0.690359  0.379732  1
  H  H10  1  0.505566  0.299707  0.870211  1
  H  H11  1  0.994406  0.195947  0.128946  1
  H  H12  1  0.494406  0.195947  0.371054  1
  H  H13  1  0.005566  0.299707  0.629789  1
  H  H14  1  0.472734  0.690359  0.120268  1
  H  H15  1  0.001451  0.801500  0.870203  1
  H  H16  1  0.786560  0.719993  0.708566  1
  H  H17  1  0.290205  0.786340  0.291160  1
  H  H18  1  0.213188  0.212886  0.789295  1
  H  H19  1  0.590535  0.344901  0.155304  1
  H  H20  1  0.090535  0.344901  0.344696  1
  H  H21  1  0.713188  0.212886  0.710705  1
  H  H22  1  0.790205  0.786340  0.208840  1
  H  H23  1  0.286560  0.719993  0.791434  1
  H  H24  1  0.415530  0.142077  0.642055  1
  H  H25  1  0.798242  0.312843  0.293799  1
  H  H26  1  0.589526  0.634687  0.838411  1
  H  H27  1  0.092282  0.861079  0.163794  1
  H  H28  1  0.592282  0.861079  0.336206  1
  H  H29  1  0.089526  0.634687  0.661589  1
  H  H30  1  0.298242  0.312843  0.206201  1
  H  H31  1  0.915530  0.142077  0.857945  1
  O  O32  1  0.496411  0.618171  0.613281  1
  O  O33  1  0.992925  0.873976  0.387142  1
  O  O34  1  0.502183  0.117375  0.888865  1
  O  O35  1  0.000046  0.379011  0.111711  1
  O  O36  1  0.500046  0.379011  0.388289  1
  O  O37  1  0.002183  0.117375  0.611135  1
  O  O38  1  0.492925  0.873976  0.112858  1
  O  O39  1  0.996411  0.618171  0.886719  1
  O  O40  1  0.813580  0.701283  0.608480  1
  O  O41  1  0.314925  0.801781  0.392199  1
  O  O42  1  0.182639  0.196550  0.888997  1
  O  O43  1  0.687546  0.290962  0.114102  1
  O  O44  1  0.187546  0.290962  0.385898  1
  O  O45  1  0.682639  0.196550  0.611003  1
  O  O46  1  0.814925  0.801781  0.107801  1
  O  O47  1  0.313580  0.701283  0.891520  1
  O  O48  1  0.313803  0.187507  0.607659  1
  O  O49  1  0.821820  0.328537  0.394769  1
  O  O50  1  0.682666  0.684019  0.890257  1
  O  O51  1  0.183951  0.814031  0.111143  1
  O  O52  1  0.683951  0.814031  0.388857  1
  O  O53  1  0.182666  0.684019  0.609743  1
  O  O54  1  0.321820  0.328537  0.105231  1
  O  O55  1  0.813803  0.187507  0.892341  1
