# generated using pymatgen
data_Y5O4F7
_symmetry_space_group_name_H-M   'P 1'
_cell_length_a   8.85616552
_cell_length_b   8.22245209
_cell_length_c   6.78769743
_cell_angle_alpha   108.68627229
_cell_angle_beta   90.00000000
_cell_angle_gamma   90.00000000
_symmetry_Int_Tables_number   1
_chemical_formula_structural   Y5O4F7
_chemical_formula_sum   'Y10 O8 F14'
_cell_volume   468.22129290
_cell_formula_units_Z   2
loop_
 _symmetry_equiv_pos_site_id
 _symmetry_equiv_pos_as_xyz
  1  'x, y, z'
loop_
 _atom_site_type_symbol
 _atom_site_label
 _atom_site_symmetry_multiplicity
 _atom_site_fract_x
 _atom_site_fract_y
 _atom_site_fract_z
 _atom_site_occupancy
  Y  Y0  1  0.218153  0.372671  0.247882  1
  Y  Y1  1  0.217451  0.578899  0.866632  1
  Y  Y2  1  0.850115  0.333029  0.549726  1
  Y  Y3  1  0.483845  0.266013  0.622369  1
  Y  Y4  1  0.422872  0.945942  0.139132  1
  Y  Y5  1  0.516155  0.766013  0.622369  1
  Y  Y6  1  0.577128  0.445942  0.139132  1
  Y  Y7  1  0.149885  0.833029  0.549726  1
  Y  Y8  1  0.782549  0.078899  0.866632  1
  Y  Y9  1  0.781847  0.872671  0.247882  1
  O  O10  1  0.696674  0.114864  0.453955  1
  O  O11  1  0.360442  0.396277  0.982157  1
  O  O12  1  0.428981  0.230750  0.270620  1
  O  O13  1  0.295026  0.848722  0.834474  1
  O  O14  1  0.704974  0.348722  0.834474  1
  O  O15  1  0.571019  0.730750  0.270620  1
  O  O16  1  0.303326  0.614864  0.453955  1
  O  O17  1  0.639558  0.896277  0.982157  1
  F  F18  1  0.031664  0.218090  0.320749  1
  F  F19  1  0.940384  0.930600  0.004598  1
  F  F20  1  0.764018  0.840301  0.594696  1
  F  F21  1  0.777642  0.282088  0.183681  1
  F  F22  1  0.014642  0.583573  0.655728  1
  F  F23  1  0.528244  0.069705  0.780461  1
  F  F24  1  0.656481  0.498674  0.493142  1
  F  F25  1  0.343519  0.998674  0.493142  1
  F  F26  1  0.471756  0.569705  0.780461  1
  F  F27  1  0.222358  0.782088  0.183681  1
  F  F28  1  0.985358  0.083573  0.655728  1
  F  F29  1  0.059616  0.430600  0.004598  1
  F  F30  1  0.235982  0.340301  0.594696  1
  F  F31  1  0.968336  0.718090  0.320749  1
