# generated using pymatgen
data_LaOs2Rh
_symmetry_space_group_name_H-M   'P 1'
_cell_length_a   4.66877907
_cell_length_b   4.66877486
_cell_length_c   4.66877160
_cell_angle_alpha   60.00038122
_cell_angle_beta   60.00099685
_cell_angle_gamma   60.00010251
_symmetry_Int_Tables_number   1
_chemical_formula_structural   LaOs2Rh
_chemical_formula_sum   'La1 Os2 Rh1'
_cell_volume   71.96125754
_cell_formula_units_Z   1
loop_
 _symmetry_equiv_pos_site_id
 _symmetry_equiv_pos_as_xyz
  1  'x, y, z'
loop_
 _atom_site_type_symbol
 _atom_site_label
 _atom_site_symmetry_multiplicity
 _atom_site_fract_x
 _atom_site_fract_y
 _atom_site_fract_z
 _atom_site_occupancy
  La  La0  1  1.000000  0.000003  1.000000  1
  Os  Os1  1  0.249998  0.249999  0.250001  1
  Os  Os2  1  0.750003  0.750000  0.749998  1
  Rh  Rh3  1  0.500000  0.499997  0.500001  1
