# generated using pymatgen
data_Re2RuBr
_symmetry_space_group_name_H-M   'P 1'
_cell_length_a   4.43586804
_cell_length_b   4.43584645
_cell_length_c   4.43584344
_cell_angle_alpha   59.99994326
_cell_angle_beta   60.00012777
_cell_angle_gamma   59.99992813
_symmetry_Int_Tables_number   1
_chemical_formula_structural   Re2RuBr
_chemical_formula_sum   'Re2 Ru1 Br1'
_cell_volume   61.71863764
_cell_formula_units_Z   1
loop_
 _symmetry_equiv_pos_site_id
 _symmetry_equiv_pos_as_xyz
  1  'x, y, z'
loop_
 _atom_site_type_symbol
 _atom_site_label
 _atom_site_symmetry_multiplicity
 _atom_site_fract_x
 _atom_site_fract_y
 _atom_site_fract_z
 _atom_site_occupancy
  Re  Re0  1  0.250001  0.249999  0.249999  1
  Re  Re1  1  0.750000  0.749999  0.750001  1
  Ru  Ru2  1  0.500000  0.500002  0.500000  1
  Br  Br3  1  -0.000000  0.000000  0.000001  1
