# generated using pymatgen
data_TeHO3
_symmetry_space_group_name_H-M   'P 1'
_cell_length_a   12.06611102
_cell_length_b   8.27137799
_cell_length_c   4.91138620
_cell_angle_alpha   90.00000000
_cell_angle_beta   92.32612528
_cell_angle_gamma   90.00000000
_symmetry_Int_Tables_number   1
_chemical_formula_structural   TeHO3
_chemical_formula_sum   'Te8 H8 O24'
_cell_volume   489.76896406
_cell_formula_units_Z   8
loop_
 _symmetry_equiv_pos_site_id
 _symmetry_equiv_pos_as_xyz
  1  'x, y, z'
loop_
 _atom_site_type_symbol
 _atom_site_label
 _atom_site_symmetry_multiplicity
 _atom_site_fract_x
 _atom_site_fract_y
 _atom_site_fract_z
 _atom_site_occupancy
  Te  Te0  1  0.614491  0.449323  0.986843  1
  Te  Te1  1  0.393429  0.531362  0.485408  1
  Te  Te2  1  0.893429  0.968638  0.485408  1
  Te  Te3  1  0.114491  0.050677  0.986843  1
  Te  Te4  1  0.917747  0.347538  0.877288  1
  Te  Te5  1  0.071381  0.662264  0.317204  1
  Te  Te6  1  0.571381  0.837736  0.317204  1
  Te  Te7  1  0.417747  0.152462  0.877288  1
  H  H8  1  0.243427  0.392110  0.212978  1
  H  H9  1  0.743427  0.107890  0.212978  1
  H  H10  1  0.857081  0.519268  0.510110  1
  H  H11  1  0.357081  0.980732  0.510110  1
  H  H12  1  0.701592  0.357725  0.441004  1
  H  H13  1  0.298585  0.633269  0.882049  1
  H  H14  1  0.798585  0.866731  0.882049  1
  H  H15  1  0.201592  0.142275  0.441004  1
  O  O16  1  0.735249  0.453260  0.755245  1
  O  O17  1  0.266678  0.508286  0.218619  1
  O  O18  1  0.766678  0.991714  0.218619  1
  O  O19  1  0.235249  0.046740  0.755245  1
  O  O20  1  0.927280  0.458169  0.522700  1
  O  O21  1  0.033143  0.551166  0.996007  1
  O  O22  1  0.533143  0.948834  0.996007  1
  O  O23  1  0.427280  0.041831  0.522700  1
  O  O24  1  0.345098  0.342659  0.674312  1
  O  O25  1  0.655262  0.653194  0.172054  1
  O  O26  1  0.155262  0.846806  0.172054  1
  O  O27  1  0.845098  0.157341  0.674312  1
  O  O28  1  0.485222  0.404215  0.232574  1
  O  O29  1  0.521647  0.585240  0.731026  1
  O  O30  1  0.021647  0.914760  0.731026  1
  O  O31  1  0.985222  0.095785  0.232574  1
  O  O32  1  0.562016  0.252706  0.801645  1
  O  O33  1  0.428143  0.725171  0.280524  1
  O  O34  1  0.928143  0.774829  0.280524  1
  O  O35  1  0.062016  0.247294  0.801645  1
  O  O36  1  0.705238  0.320292  0.246404  1
  O  O37  1  0.297811  0.670033  0.690178  1
  O  O38  1  0.797811  0.829967  0.690178  1
  O  O39  1  0.205238  0.179708  0.246404  1
