# generated using pymatgen
data_TeHO3
_symmetry_space_group_name_H-M   'P 1'
_cell_length_a   8.36142951
_cell_length_b   11.52333428
_cell_length_c   4.98984461
_cell_angle_alpha   90.00000000
_cell_angle_beta   90.07397066
_cell_angle_gamma   90.00000000
_symmetry_Int_Tables_number   1
_chemical_formula_structural   TeHO3
_chemical_formula_sum   'Te8 H8 O24'
_cell_volume   480.77884845
_cell_formula_units_Z   8
loop_
 _symmetry_equiv_pos_site_id
 _symmetry_equiv_pos_as_xyz
  1  'x, y, z'
loop_
 _atom_site_type_symbol
 _atom_site_label
 _atom_site_symmetry_multiplicity
 _atom_site_fract_x
 _atom_site_fract_y
 _atom_site_fract_z
 _atom_site_occupancy
  Te  Te0  1  0.456103  0.614738  0.020552  1
  Te  Te1  1  0.548893  0.387590  0.521543  1
  Te  Te2  1  0.956103  0.885262  0.520552  1
  Te  Te3  1  0.048893  0.112410  0.021543  1
  Te  Te4  1  0.333872  0.901659  0.149135  1
  Te  Te5  1  0.669974  0.097318  0.652733  1
  Te  Te6  1  0.833872  0.598341  0.649135  1
  Te  Te7  1  0.169974  0.402682  0.152733  1
  H  H8  1  0.218007  0.696723  0.752666  1
  H  H9  1  0.685415  0.313604  0.102294  1
  H  H10  1  0.718007  0.803277  0.252666  1
  H  H11  1  0.185415  0.186396  0.602294  1
  H  H12  1  0.484102  0.865899  0.553398  1
  H  H13  1  0.491965  0.125157  0.026980  1
  H  H14  1  0.984102  0.634101  0.053398  1
  H  H15  1  0.991965  0.374843  0.526980  1
  O  O16  1  0.266595  0.565128  0.209496  1
  O  O17  1  0.740075  0.436813  0.709806  1
  O  O18  1  0.766595  0.934872  0.709496  1
  O  O19  1  0.240075  0.063187  0.209806  1
  O  O20  1  0.414313  0.479468  0.775533  1
  O  O21  1  0.591480  0.520617  0.270543  1
  O  O22  1  0.914313  0.020532  0.275533  1
  O  O23  1  0.091480  0.979383  0.770543  1
  O  O24  1  0.331062  0.717969  0.786812  1
  O  O25  1  0.673552  0.286881  0.288172  1
  O  O26  1  0.831062  0.782031  0.286812  1
  O  O27  1  0.173552  0.213119  0.788172  1
  O  O28  1  0.351096  0.333862  0.342108  1
  O  O29  1  0.646051  0.667405  0.816820  1
  O  O30  1  0.851096  0.166138  0.842108  1
  O  O31  1  0.146051  0.832595  0.316820  1
  O  O32  1  0.441680  0.941112  0.488937  1
  O  O33  1  0.555488  0.055453  0.983723  1
  O  O34  1  0.941680  0.558888  0.988937  1
  O  O35  1  0.055488  0.444547  0.483723  1
  O  O36  1  0.487913  0.750455  0.235042  1
  O  O37  1  0.541827  0.255052  0.751763  1
  O  O38  1  0.987913  0.749545  0.735042  1
  O  O39  1  0.041827  0.244948  0.251763  1
