# generated using pymatgen
data_Yb15Mg5Ge16
_symmetry_space_group_name_H-M   'P 1'
_cell_length_a   7.20616176
_cell_length_b   7.79948883
_cell_length_c   30.39678394
_cell_angle_alpha   90.00000000
_cell_angle_beta   90.09917207
_cell_angle_gamma   90.00000000
_symmetry_Int_Tables_number   1
_chemical_formula_structural   Yb15Mg5Ge16
_chemical_formula_sum   'Yb30 Mg10 Ge32'
_cell_volume   1708.42978005
_cell_formula_units_Z   2
loop_
 _symmetry_equiv_pos_site_id
 _symmetry_equiv_pos_as_xyz
  1  'x, y, z'
loop_
 _atom_site_type_symbol
 _atom_site_label
 _atom_site_symmetry_multiplicity
 _atom_site_fract_x
 _atom_site_fract_y
 _atom_site_fract_z
 _atom_site_occupancy
  Yb  Yb0  1  0.010291  0.812343  0.046129  1
  Yb  Yb1  1  0.013778  0.828972  0.202637  1
  Yb  Yb2  1  0.018497  0.822179  0.547523  1
  Yb  Yb3  1  0.008899  0.812067  0.701179  1
  Yb  Yb4  1  0.171089  0.330845  0.063002  1
  Yb  Yb5  1  0.175893  0.326859  0.185214  1
  Yb  Yb6  1  0.180418  0.307978  0.563409  1
  Yb  Yb7  1  0.167025  0.316603  0.686329  1
  Yb  Yb8  1  0.330189  0.817267  0.315286  1
  Yb  Yb9  1  0.324150  0.819277  0.814330  1
  Yb  Yb10  1  0.335911  0.825389  0.937752  1
  Yb  Yb11  1  0.494074  0.326851  0.300350  1
  Yb  Yb12  1  0.491036  0.330485  0.451890  1
  Yb  Yb13  1  0.495285  0.315766  0.950905  1
  Yb  Yb14  1  0.479356  0.322368  0.797612  1
  Yb  Yb15  1  0.518497  0.677821  0.047523  1
  Yb  Yb16  1  0.508899  0.687933  0.201179  1
  Yb  Yb17  1  0.510291  0.687657  0.546129  1
  Yb  Yb18  1  0.513778  0.671028  0.702637  1
  Yb  Yb19  1  0.680418  0.192022  0.063409  1
  Yb  Yb20  1  0.667025  0.183397  0.186329  1
  Yb  Yb21  1  0.671089  0.169155  0.563002  1
  Yb  Yb22  1  0.675893  0.173141  0.685214  1
  Yb  Yb23  1  0.824150  0.680723  0.314330  1
  Yb  Yb24  1  0.835911  0.674611  0.437752  1
  Yb  Yb25  1  0.830189  0.682733  0.815286  1
  Yb  Yb26  1  0.979356  0.177632  0.297612  1
  Yb  Yb27  1  0.995285  0.184234  0.450905  1
  Yb  Yb28  1  0.994074  0.173149  0.800350  1
  Yb  Yb29  1  0.991036  0.169515  0.951890  1
  Mg  Mg30  1  0.155499  0.475567  0.371191  1
  Mg  Mg31  1  0.149625  0.483265  0.882486  1
  Mg  Mg32  1  0.311116  0.805751  0.436398  1
  Mg  Mg33  1  0.345544  0.980163  0.116681  1
  Mg  Mg34  1  0.344315  0.966714  0.631211  1
  Mg  Mg35  1  0.649625  0.016735  0.382486  1
  Mg  Mg36  1  0.655499  0.024433  0.871191  1
  Mg  Mg37  1  0.811116  0.694249  0.936398  1
  Mg  Mg38  1  0.844315  0.533286  0.131211  1
  Mg  Mg39  1  0.845544  0.519837  0.616681  1
  Ge  Ge40  1  0.026870  0.908104  0.376369  1
  Ge  Ge41  1  0.021825  0.901845  0.877327  1
  Ge  Ge42  1  0.155311  0.527047  0.268257  1
  Ge  Ge43  1  0.166437  0.529206  0.485344  1
  Ge  Ge44  1  0.152212  0.534377  0.766214  1
  Ge  Ge45  1  0.156693  0.522459  0.978583  1
  Ge  Ge46  1  0.221583  0.643352  0.124638  1
  Ge  Ge47  1  0.223753  0.628046  0.624608  1
  Ge  Ge48  1  0.276110  0.130923  0.373356  1
  Ge  Ge49  1  0.275843  0.132338  0.876662  1
  Ge  Ge50  1  0.336687  0.049386  0.238426  1
  Ge  Ge51  1  0.342408  0.023552  0.732217  1
  Ge  Ge52  1  0.345651  0.032235  0.018889  1
  Ge  Ge53  1  0.338938  0.027083  0.508554  1
  Ge  Ge54  1  0.478405  0.418334  0.123957  1
  Ge  Ge55  1  0.479280  0.407242  0.625088  1
  Ge  Ge56  1  0.521825  0.598155  0.377327  1
  Ge  Ge57  1  0.526870  0.591896  0.876369  1
  Ge  Ge58  1  0.656693  0.977541  0.478583  1
  Ge  Ge59  1  0.666437  0.970794  0.985344  1
  Ge  Ge60  1  0.652212  0.965623  0.266214  1
  Ge  Ge61  1  0.655311  0.972953  0.768257  1
  Ge  Ge62  1  0.723753  0.871954  0.124608  1
  Ge  Ge63  1  0.721583  0.856648  0.624638  1
  Ge  Ge64  1  0.775843  0.367662  0.376662  1
  Ge  Ge65  1  0.776110  0.369077  0.873356  1
  Ge  Ge66  1  0.838938  0.472917  0.008554  1
  Ge  Ge67  1  0.842408  0.476448  0.232217  1
  Ge  Ge68  1  0.836687  0.450614  0.738426  1
  Ge  Ge69  1  0.845650  0.467765  0.518889  1
  Ge  Ge70  1  0.979280  0.092758  0.125088  1
  Ge  Ge71  1  0.978405  0.081666  0.623957  1
