# generated using pymatgen
data_Bi12Rh12O41
_symmetry_space_group_name_H-M   'P 1'
_cell_length_a   7.33250324
_cell_length_b   7.33250348
_cell_length_c   65.86529396
_cell_angle_alpha   59.93522451
_cell_angle_beta   59.93522342
_cell_angle_gamma   59.99953665
_symmetry_Int_Tables_number   1
_chemical_formula_structural   Bi12Rh12O41
_chemical_formula_sum   'Bi36 Rh36 O123'
_cell_volume   2501.60509120
_cell_formula_units_Z   3
loop_
 _symmetry_equiv_pos_site_id
 _symmetry_equiv_pos_as_xyz
  1  'x, y, z'
loop_
 _atom_site_type_symbol
 _atom_site_label
 _atom_site_symmetry_multiplicity
 _atom_site_fract_x
 _atom_site_fract_y
 _atom_site_fract_z
 _atom_site_occupancy
  Bi  Bi0  1  0.988819  0.500858  0.056607  1
  Bi  Bi1  1  0.500171  0.500171  0.999942  1
  Bi  Bi2  1  0.500857  0.500857  0.056607  1
  Bi  Bi3  1  0.003931  0.502173  0.165747  1
  Bi  Bi4  1  0.500858  0.988819  0.056607  1
  Bi  Bi5  1  0.508189  0.508189  0.108380  1
  Bi  Bi6  1  0.502180  0.502180  0.165747  1
  Bi  Bi7  1  0.000320  0.500239  0.277687  1
  Bi  Bi8  1  0.502173  0.003931  0.165747  1
  Bi  Bi9  1  0.500998  0.500998  0.221889  1
  Bi  Bi10  1  0.500232  0.500232  0.277685  1
  Bi  Bi11  1  0.500239  0.000320  0.277687  1
  Bi  Bi12  1  0.500188  0.500188  0.333271  1
  Bi  Bi13  1  0.500124  0.500124  0.388851  1
  Bi  Bi14  1  0.500124  0.000095  0.388851  1
  Bi  Bi15  1  0.500056  0.500056  0.444425  1
  Bi  Bi16  1  0.000095  0.500124  0.388851  1
  Bi  Bi17  1  0.499859  0.499859  0.500035  1
  Bi  Bi18  1  0.499857  -0.000008  0.500035  1
  Bi  Bi19  1  0.499873  0.499873  0.555599  1
  Bi  Bi20  1  -0.000008  0.499857  0.500035  1
  Bi  Bi21  1  0.499806  0.499806  0.611189  1
  Bi  Bi22  1  0.995899  0.497798  0.723168  1
  Bi  Bi23  1  0.499802  0.999688  0.611190  1
  Bi  Bi24  1  0.497798  0.995899  0.723168  1
  Bi  Bi25  1  0.499036  0.499036  0.666988  1
  Bi  Bi26  1  0.999688  0.499802  0.611190  1
  Bi  Bi27  1  0.497803  0.497803  0.723168  1
  Bi  Bi28  1  0.008601  0.496974  0.833050  1
  Bi  Bi29  1  0.491355  0.491355  0.780660  1
  Bi  Bi30  1  0.496975  0.496975  0.833049  1
  Bi  Bi31  1  0.012184  0.499035  0.943305  1
  Bi  Bi32  1  0.497101  0.497101  0.889858  1
  Bi  Bi33  1  0.496974  0.008601  0.833050  1
  Bi  Bi34  1  0.499043  0.499043  0.943303  1
  Bi  Bi35  1  0.499035  0.012184  0.943305  1
  Rh  Rh36  1  -0.000064  -0.000064  0.000085  1
  Rh  Rh37  1  -0.000067  0.499376  0.000085  1
  Rh  Rh38  1  0.499376  -0.000067  0.000085  1
  Rh  Rh39  1  0.000702  0.000702  0.055320  1
  Rh  Rh40  1  0.000298  0.498270  0.111236  1
  Rh  Rh41  1  0.498270  0.000298  0.111236  1
  Rh  Rh42  1  0.000037  0.500292  0.333292  1
  Rh  Rh43  1  0.500292  0.000037  0.333292  1
  Rh  Rh44  1  0.000292  0.000292  0.111237  1
  Rh  Rh45  1  0.499517  0.000324  0.222203  1
  Rh  Rh46  1  0.000324  0.499517  0.222203  1
  Rh  Rh47  1  0.999771  0.999771  0.166745  1
  Rh  Rh48  1  0.000147  0.500144  0.444397  1
  Rh  Rh49  1  0.000042  0.000042  0.333290  1
  Rh  Rh50  1  0.000332  0.000332  0.222202  1
  Rh  Rh51  1  0.000200  0.000200  0.277710  1
  Rh  Rh52  1  0.500144  0.000147  0.444397  1
  Rh  Rh53  1  0.000292  0.000292  0.388794  1
  Rh  Rh54  1  0.000114  0.000114  0.722185  1
  Rh  Rh55  1  0.500511  0.999542  0.666712  1
  Rh  Rh56  1  0.000141  0.000141  0.444397  1
  Rh  Rh57  1  0.499842  0.999733  0.555631  1
  Rh  Rh58  1  0.999733  0.499842  0.555631  1
  Rh  Rh59  1  0.000072  0.000072  0.499976  1
  Rh  Rh60  1  0.999545  0.999545  0.666712  1
  Rh  Rh61  1  0.999735  0.999735  0.555631  1
  Rh  Rh62  1  0.999542  0.500511  0.666712  1
  Rh  Rh63  1  0.999699  0.999699  0.611210  1
  Rh  Rh64  1  0.502294  0.999185  0.777704  1
  Rh  Rh65  1  0.999185  0.502294  0.777704  1
  Rh  Rh66  1  0.999182  0.999182  0.777705  1
  Rh  Rh67  1  0.504514  0.999204  0.888564  1
  Rh  Rh68  1  0.998633  0.998633  0.944899  1
  Rh  Rh69  1  0.999204  0.504514  0.888564  1
  Rh  Rh70  1  0.998930  0.998930  0.833689  1
  Rh  Rh71  1  0.999207  0.999207  0.888565  1
  O  O72  1  0.082693  0.661701  0.010434  1
  O  O73  1  0.087622  0.087622  0.073748  1
  O  O74  1  0.661701  0.082693  0.010434  1
  O  O75  1  0.364738  0.364738  0.045087  1
  O  O76  1  0.087625  0.661030  0.073747  1
  O  O77  1  0.331288  0.331288  0.102394  1
  O  O78  1  0.087720  0.665967  0.120038  1
  O  O79  1  0.330007  0.918194  0.037067  1
  O  O80  1  0.083431  0.083431  0.185161  1
  O  O81  1  0.661702  0.661702  0.010434  1
  O  O82  1  0.661030  0.087625  0.073747  1
  O  O83  1  0.665967  0.087720  0.120038  1
  O  O84  1  0.389083  0.389083  0.148084  1
  O  O85  1  0.918194  0.330007  0.037067  1
  O  O86  1  0.331287  0.915866  0.102394  1
  O  O87  1  0.083435  0.666693  0.185161  1
  O  O88  1  0.332123  0.332123  0.213083  1
  O  O89  1  0.083127  0.667849  0.231242  1
  O  O90  1  0.334289  0.915789  0.148237  1
  O  O91  1  0.082856  0.082856  0.296329  1
  O  O92  1  0.666693  0.083435  0.185161  1
  O  O93  1  0.915866  0.331287  0.102394  1
  O  O94  1  0.665967  0.665967  0.120039  1
  O  O95  1  0.918196  0.918196  0.037067  1
  O  O96  1  0.667849  0.083127  0.231242  1
  O  O97  1  0.332124  0.918003  0.213083  1
  O  O98  1  0.915789  0.334289  0.148237  1
  O  O99  1  0.628142  0.628142  0.179508  1
  O  O100  1  0.375875  0.375875  0.263598  1
  O  O101  1  0.082857  0.667324  0.296329  1
  O  O102  1  0.332432  0.332432  0.324144  1
  O  O103  1  0.082968  0.082968  0.407416  1
  O  O104  1  0.333269  0.917570  0.259066  1
  O  O105  1  0.082608  0.668071  0.342360  1
  O  O106  1  0.667324  0.082857  0.296329  1
  O  O107  1  0.918003  0.332124  0.213083  1
  O  O108  1  0.915794  0.915794  0.148236  1
  O  O109  1  0.667844  0.667844  0.231243  1
  O  O110  1  0.668071  0.082608  0.342360  1
  O  O111  1  0.917570  0.333269  0.259066  1
  O  O112  1  0.332429  0.917835  0.324144  1
  O  O113  1  0.082973  0.667323  0.407415  1
  O  O114  1  0.625234  0.625234  0.291589  1
  O  O115  1  0.375292  0.375292  0.374902  1
  O  O116  1  0.332608  0.332608  0.435222  1
  O  O117  1  0.082635  0.082635  0.518604  1
  O  O118  1  0.082686  0.667818  0.453522  1
  O  O119  1  0.333192  0.917720  0.370151  1
  O  O120  1  0.667323  0.082973  0.407415  1
  O  O121  1  0.917835  0.332429  0.324144  1
  O  O122  1  0.917571  0.917571  0.259066  1
  O  O123  1  0.668072  0.668072  0.342361  1
  O  O124  1  0.667818  0.082686  0.453522  1
  O  O125  1  0.625256  0.625256  0.402692  1
  O  O126  1  0.082634  0.667298  0.518603  1
  O  O127  1  0.917720  0.333192  0.370151  1
  O  O128  1  0.375078  0.375078  0.486084  1
  O  O129  1  0.332598  0.917794  0.435222  1
  O  O130  1  0.082331  0.082331  0.629805  1
  O  O131  1  0.082530  0.667301  0.564764  1
  O  O132  1  0.332345  0.332345  0.546460  1
  O  O133  1  0.332803  0.917436  0.481370  1
  O  O134  1  0.667298  0.082634  0.518603  1
  O  O135  1  0.917794  0.332598  0.435222  1
  O  O136  1  0.667807  0.667807  0.453522  1
  O  O137  1  0.917725  0.917725  0.370151  1
  O  O138  1  0.667301  0.082530  0.564764  1
  O  O139  1  0.917436  0.332803  0.481370  1
  O  O140  1  0.624917  0.624917  0.513917  1
  O  O141  1  0.374722  0.374722  0.597315  1
  O  O142  1  0.082336  0.667097  0.629804  1
  O  O143  1  0.332336  0.917168  0.546460  1
  O  O144  1  0.332095  0.332095  0.657630  1
  O  O145  1  0.332249  0.917071  0.592623  1
  O  O146  1  0.081922  0.668093  0.675767  1
  O  O147  1  0.083960  0.083960  0.740758  1
  O  O148  1  0.667097  0.082336  0.629804  1
  O  O149  1  0.917168  0.332336  0.546460  1
  O  O150  1  0.917435  0.917435  0.481369  1
  O  O151  1  0.667294  0.667294  0.564764  1
  O  O152  1  0.668093  0.081922  0.675767  1
  O  O153  1  0.917071  0.332249  0.592623  1
  O  O154  1  0.371949  0.371949  0.709350  1
  O  O155  1  0.332095  0.917133  0.657631  1
  O  O156  1  0.624207  0.624207  0.625265  1
  O  O157  1  0.083963  0.665258  0.740757  1
  O  O158  1  0.083104  0.668606  0.786632  1
  O  O159  1  0.333744  0.333744  0.768952  1
  O  O160  1  0.082444  0.082444  0.851848  1
  O  O161  1  0.333386  0.916651  0.703701  1
  O  O162  1  0.917133  0.332095  0.657631  1
  O  O163  1  0.665258  0.083963  0.740757  1
  O  O164  1  0.917075  0.917075  0.592622  1
  O  O165  1  0.668086  0.668086  0.675767  1
  O  O166  1  0.668606  0.083104  0.786632  1
  O  O167  1  0.916651  0.333386  0.703701  1
  O  O168  1  0.610825  0.610825  0.740836  1
  O  O169  1  0.082445  0.668478  0.851848  1
  O  O170  1  0.333737  0.911946  0.768952  1
  O  O171  1  0.339516  0.339516  0.878883  1
  O  O172  1  0.082793  0.668425  0.897818  1
  O  O173  1  0.080992  0.080992  0.963186  1
  O  O174  1  0.340037  0.910767  0.815381  1
  O  O175  1  0.668478  0.082445  0.851848  1
  O  O176  1  0.668604  0.668604  0.786632  1
  O  O177  1  0.911946  0.333737  0.768952  1
  O  O178  1  0.916653  0.916653  0.703701  1
  O  O179  1  0.668425  0.082793  0.897818  1
  O  O180  1  0.625514  0.625514  0.847050  1
  O  O181  1  0.910767  0.340037  0.815381  1
  O  O182  1  0.339515  0.911017  0.878883  1
  O  O183  1  0.080989  0.669344  0.963187  1
  O  O184  1  0.337016  0.337016  0.989893  1
  O  O185  1  0.338332  0.912249  0.926352  1
  O  O186  1  0.669344  0.080989  0.963187  1
  O  O187  1  0.911017  0.339515  0.878883  1
  O  O188  1  0.910770  0.910770  0.815380  1
  O  O189  1  0.668423  0.668423  0.897819  1
  O  O190  1  0.912249  0.338332  0.926352  1
  O  O191  1  0.634322  0.634322  0.955227  1
  O  O192  1  0.337016  0.916926  0.989893  1
  O  O193  1  0.916926  0.337016  0.989893  1
  O  O194  1  0.912249  0.912249  0.926352  1
