# generated using pymatgen
data_Sr11In3Ga4
_symmetry_space_group_name_H-M   'P 1'
_cell_length_a   12.34493240
_cell_length_b   12.34468276
_cell_length_c   12.34454443
_cell_angle_alpha   59.99963492
_cell_angle_beta   59.99886820
_cell_angle_gamma   60.00032685
_symmetry_Int_Tables_number   1
_chemical_formula_structural   Sr11In3Ga4
_chemical_formula_sum   'Sr22 In6 Ga8'
_cell_volume   1330.22430459
_cell_formula_units_Z   2
loop_
 _symmetry_equiv_pos_site_id
 _symmetry_equiv_pos_as_xyz
  1  'x, y, z'
loop_
 _atom_site_type_symbol
 _atom_site_label
 _atom_site_symmetry_multiplicity
 _atom_site_fract_x
 _atom_site_fract_y
 _atom_site_fract_z
 _atom_site_occupancy
  Sr  Sr0  1  0.164620  0.500024  0.499991  1
  Sr  Sr1  1  0.164628  0.835374  0.499982  1
  Sr  Sr2  1  0.499995  0.499989  0.164651  1
  Sr  Sr3  1  0.132643  0.132642  0.602039  1
  Sr  Sr4  1  0.867361  0.867323  0.397959  1
  Sr  Sr5  1  0.132643  0.602043  0.132658  1
  Sr  Sr6  1  0.835361  0.164653  0.499988  1
  Sr  Sr7  1  0.132656  0.132674  0.132633  1
  Sr  Sr8  1  0.602046  0.132678  0.132639  1
  Sr  Sr9  1  0.500019  0.499976  0.500010  1
  Sr  Sr10  1  0.499984  0.835351  0.164637  1
  Sr  Sr11  1  0.499998  0.835372  0.499979  1
  Sr  Sr12  1  0.164645  0.500012  0.835377  1
  Sr  Sr13  1  0.500008  0.499999  0.835365  1
  Sr  Sr14  1  0.867342  0.397972  0.867340  1
  Sr  Sr15  1  0.835378  0.499985  0.499985  1
  Sr  Sr16  1  0.500011  0.164635  0.835355  1
  Sr  Sr17  1  0.499992  0.164644  0.500013  1
  Sr  Sr18  1  0.835389  0.500023  0.164609  1
  Sr  Sr19  1  0.397964  0.867353  0.867330  1
  Sr  Sr20  1  0.000008  1.000000  0.999989  1
  Sr  Sr21  1  0.867341  0.867367  0.867323  1
  In  In22  1  0.217226  0.782750  0.217222  1
  In  In23  1  0.217222  0.782718  0.782841  1
  In  In24  1  0.217240  0.217224  0.782722  1
  In  In25  1  0.782764  0.217190  0.782751  1
  In  In26  1  0.782838  0.217183  0.217239  1
  In  In27  1  0.782703  0.782817  0.217298  1
  Ga  Ga28  1  0.306216  0.081371  0.306222  1
  Ga  Ga29  1  0.693794  0.693774  0.693791  1
  Ga  Ga30  1  0.918623  0.693762  0.693822  1
  Ga  Ga31  1  0.081370  0.306210  0.306229  1
  Ga  Ga32  1  0.306247  0.306180  0.081361  1
  Ga  Ga33  1  0.693745  0.693810  0.918656  1
  Ga  Ga34  1  0.306200  0.306244  0.306223  1
  Ga  Ga35  1  0.693782  0.918679  0.693771  1
