# generated using pymatgen
data_V3(H3O5)2
_symmetry_space_group_name_H-M   'P 1'
_cell_length_a   8.95753340
_cell_length_b   9.07775391
_cell_length_c   5.94510462
_cell_angle_alpha   88.32257747
_cell_angle_beta   90.00000000
_cell_angle_gamma   90.00000000
_symmetry_Int_Tables_number   1
_chemical_formula_structural   V3(H3O5)2
_chemical_formula_sum   'V6 H12 O20'
_cell_volume   483.21476520
_cell_formula_units_Z   2
loop_
 _symmetry_equiv_pos_site_id
 _symmetry_equiv_pos_as_xyz
  1  'x, y, z'
loop_
 _atom_site_type_symbol
 _atom_site_label
 _atom_site_symmetry_multiplicity
 _atom_site_fract_x
 _atom_site_fract_y
 _atom_site_fract_z
 _atom_site_occupancy
  V  V0  1  0.498805  0.499163  0.252923  1
  V  V1  1  0.001195  0.999163  0.252923  1
  V  V2  1  0.360793  0.136187  0.267444  1
  V  V3  1  0.636404  0.863476  0.274278  1
  V  V4  1  0.139207  0.636187  0.267444  1
  V  V5  1  0.863596  0.363476  0.274278  1
  H  H6  1  0.438871  0.176388  0.650112  1
  H  H7  1  0.567653  0.890490  0.664897  1
  H  H8  1  0.061129  0.676388  0.650112  1
  H  H9  1  0.932347  0.390490  0.664897  1
  H  H10  1  0.287653  0.908128  0.817198  1
  H  H11  1  0.358403  0.753421  0.853974  1
  H  H12  1  0.636713  0.140331  0.923810  1
  H  H13  1  0.705004  0.226568  0.717046  1
  H  H14  1  0.141597  0.253421  0.853974  1
  H  H15  1  0.212347  0.408128  0.817198  1
  H  H16  1  0.863287  0.640331  0.923810  1
  H  H17  1  0.794996  0.726568  0.717046  1
  O  O18  1  0.492152  0.493008  0.525092  1
  O  O19  1  0.007848  0.993008  0.525092  1
  O  O20  1  0.412441  0.305015  0.163991  1
  O  O21  1  0.585994  0.696061  0.171401  1
  O  O22  1  0.087559  0.805015  0.163991  1
  O  O23  1  0.914006  0.196061  0.171401  1
  O  O24  1  0.305396  0.586267  0.147604  1
  O  O25  1  0.693281  0.411670  0.166659  1
  O  O26  1  0.806719  0.911670  0.166659  1
  O  O27  1  0.194604  0.086267  0.147604  1
  O  O28  1  0.350184  0.140042  0.563082  1
  O  O29  1  0.652139  0.853942  0.573122  1
  O  O30  1  0.149816  0.640042  0.563082  1
  O  O31  1  0.847861  0.353942  0.573122  1
  O  O32  1  0.505724  0.005261  0.197177  1
  O  O33  1  0.994276  0.505261  0.197177  1
  O  O34  1  0.369517  0.845949  0.768107  1
  O  O35  1  0.621868  0.162080  0.762867  1
  O  O36  1  0.130483  0.345949  0.768107  1
  O  O37  1  0.878132  0.662080  0.762867  1
