# generated using pymatgen
data_Fe21(MoC3)2
_symmetry_space_group_name_H-M   'P 1'
_cell_length_a   7.42002420
_cell_length_b   7.42002454
_cell_length_c   7.42002406
_cell_angle_alpha   60.00000212
_cell_angle_beta   60.00000065
_cell_angle_gamma   60.00000428
_symmetry_Int_Tables_number   1
_chemical_formula_structural   Fe21(MoC3)2
_chemical_formula_sum   'Fe21 Mo2 C6'
_cell_volume   288.86904267
_cell_formula_units_Z   1
loop_
 _symmetry_equiv_pos_site_id
 _symmetry_equiv_pos_as_xyz
  1  'x, y, z'
loop_
 _atom_site_type_symbol
 _atom_site_label
 _atom_site_symmetry_multiplicity
 _atom_site_fract_x
 _atom_site_fract_y
 _atom_site_fract_z
 _atom_site_occupancy
  Fe  Fe0  1  0.660584  1.000000  0.339416  1
  Fe  Fe1  1  -0.000000  -0.000000  0.339416  1
  Fe  Fe2  1  0.849363  0.383545  0.383545  1
  Fe  Fe3  1  0.339416  0.660584  1.000000  1
  Fe  Fe4  1  0.383545  0.383545  0.383545  1
  Fe  Fe5  1  0.339416  0.000000  0.000000  1
  Fe  Fe6  1  -0.000000  -0.000000  0.660584  1
  Fe  Fe7  1  0.000000  0.339416  0.000000  1
  Fe  Fe8  1  0.660584  1.000000  1.000000  1
  Fe  Fe9  1  0.000000  0.339416  0.660584  1
  Fe  Fe10  1  0.339416  0.000000  0.660584  1
  Fe  Fe11  1  1.000000  0.660584  1.000000  1
  Fe  Fe12  1  0.616455  0.616455  0.150637  1
  Fe  Fe13  1  -0.000000  -0.000000  0.000000  1
  Fe  Fe14  1  0.660584  0.339416  0.000000  1
  Fe  Fe15  1  0.616455  0.616455  0.616455  1
  Fe  Fe16  1  0.383545  0.383545  0.849363  1
  Fe  Fe17  1  0.616455  0.150637  0.616455  1
  Fe  Fe18  1  1.000000  0.660584  0.339416  1
  Fe  Fe19  1  0.383545  0.849363  0.383545  1
  Fe  Fe20  1  0.150637  0.616455  0.616455  1
  Mo  Mo21  1  0.750000  0.750000  0.750000  1
  Mo  Mo22  1  0.250000  0.250000  0.250000  1
  C  C23  1  0.279780  0.720220  0.279780  1
  C  C24  1  0.279780  0.279780  0.720220  1
  C  C25  1  0.279780  0.720220  0.720220  1
  C  C26  1  0.720220  0.279780  0.279780  1
  C  C27  1  0.720220  0.720220  0.279780  1
  C  C28  1  0.720220  0.279780  0.720220  1
