# generated using pymatgen
data_VFe2Sn
_symmetry_space_group_name_H-M   'P 1'
_cell_length_a   4.21753966
_cell_length_b   4.21829263
_cell_length_c   4.21735033
_cell_angle_alpha   59.99422847
_cell_angle_beta   59.99726958
_cell_angle_gamma   59.99631472
_symmetry_Int_Tables_number   1
_chemical_formula_structural   VFe2Sn
_chemical_formula_sum   'V1 Fe2 Sn1'
_cell_volume   53.04940971
_cell_formula_units_Z   1
loop_
 _symmetry_equiv_pos_site_id
 _symmetry_equiv_pos_as_xyz
  1  'x, y, z'
loop_
 _atom_site_type_symbol
 _atom_site_label
 _atom_site_symmetry_multiplicity
 _atom_site_fract_x
 _atom_site_fract_y
 _atom_site_fract_z
 _atom_site_occupancy
  V  V0  1  0.499998  0.500002  0.500000  1
  Fe  Fe1  1  0.249965  0.250029  0.249970  1
  Fe  Fe2  1  0.750038  0.749969  0.750029  1
  Sn  Sn3  1  0.999999  -0.000000  0.000001  1
