# generated using pymatgen
data_Rb2ZnCl3
_symmetry_space_group_name_H-M   'P 1'
_cell_length_a   9.12649855
_cell_length_b   11.76018491
_cell_length_c   9.51805161
_cell_angle_alpha   90.00000000
_cell_angle_beta   90.00000000
_cell_angle_gamma   82.41531299
_symmetry_Int_Tables_number   1
_chemical_formula_structural   Rb2ZnCl3
_chemical_formula_sum   'Rb8 Zn4 Cl12'
_cell_volume   1012.62808532
_cell_formula_units_Z   4
loop_
 _symmetry_equiv_pos_site_id
 _symmetry_equiv_pos_as_xyz
  1  'x, y, z'
loop_
 _atom_site_type_symbol
 _atom_site_label
 _atom_site_symmetry_multiplicity
 _atom_site_fract_x
 _atom_site_fract_y
 _atom_site_fract_z
 _atom_site_occupancy
  Rb  Rb0  1  0.350978  0.458910  0.779025  1
  Rb  Rb1  1  0.257911  0.182475  0.154424  1
  Rb  Rb2  1  0.350978  0.958910  0.720975  1
  Rb  Rb3  1  0.257911  0.682475  0.345576  1
  Rb  Rb4  1  0.806564  0.772320  0.779327  1
  Rb  Rb5  1  0.806564  0.272320  0.720673  1
  Rb  Rb6  1  0.769180  0.039095  0.381695  1
  Rb  Rb7  1  0.769180  0.539095  0.118305  1
  Zn  Zn8  1  0.139872  0.190544  0.518997  1
  Zn  Zn9  1  0.139872  0.690544  0.981003  1
  Zn  Zn10  1  0.562592  0.823162  0.220522  1
  Zn  Zn11  1  0.562592  0.323162  0.279478  1
  Cl  Cl12  1  0.418588  0.959898  0.352962  1
  Cl  Cl13  1  0.423825  0.802314  0.024029  1
  Cl  Cl14  1  0.418588  0.459898  0.147038  1
  Cl  Cl15  1  0.423825  0.302314  0.475971  1
  Cl  Cl16  1  0.682485  0.026644  0.697296  1
  Cl  Cl17  1  0.603563  0.673025  0.377653  1
  Cl  Cl18  1  0.682485  0.526644  0.802704  1
  Cl  Cl19  1  0.603563  0.173025  0.122347  1
  Cl  Cl20  1  0.153702  0.231954  0.837721  1
  Cl  Cl21  1  0.153702  0.731954  0.662279  1
  Cl  Cl22  1  0.800640  0.335560  0.354672  1
  Cl  Cl23  1  0.800640  0.835560  0.145328  1
