# generated using pymatgen
data_Al2CoO4
_symmetry_space_group_name_H-M   'P 1'
_cell_length_a   5.78493930
_cell_length_b   5.78388139
_cell_length_c   17.37731969
_cell_angle_alpha   60.02687062
_cell_angle_beta   60.04504554
_cell_angle_gamma   59.98861064
_symmetry_Int_Tables_number   1
_chemical_formula_structural   Al2CoO4
_chemical_formula_sum   'Al12 Co6 O24'
_cell_volume   411.32428114
_cell_formula_units_Z   6
loop_
 _symmetry_equiv_pos_site_id
 _symmetry_equiv_pos_as_xyz
  1  'x, y, z'
loop_
 _atom_site_type_symbol
 _atom_site_label
 _atom_site_symmetry_multiplicity
 _atom_site_fract_x
 _atom_site_fract_y
 _atom_site_fract_z
 _atom_site_occupancy
  Al  Al0  1  0.246320  0.249517  0.085872  1
  Al  Al1  1  0.119948  0.627948  0.208994  1
  Al  Al2  1  0.625190  0.123050  0.208809  1
  Al  Al3  1  0.625056  0.628018  0.208829  1
  Al  Al4  1  0.124027  0.624529  0.542331  1
  Al  Al5  1  0.623457  0.624198  0.376286  1
  Al  Al6  1  0.624481  0.123982  0.542363  1
  Al  Al7  1  0.624486  0.624529  0.542334  1
  Al  Al8  1  0.123062  0.626635  0.873766  1
  Al  Al9  1  0.625056  0.624034  0.708649  1
  Al  Al10  1  0.628714  0.119838  0.874270  1
  Al  Al11  1  0.628884  0.626556  0.873976  1
  Co  Co12  1  0.004186  0.000396  0.997112  1
  Co  Co13  1  0.998955  0.000583  0.333795  1
  Co  Co14  1  0.627914  0.625782  0.039479  1
  Co  Co15  1  0.251236  0.251510  0.415343  1
  Co  Co16  1  0.001139  0.000972  0.665582  1
  Co  Co17  1  0.247386  0.246111  0.753072  1
  O  O18  1  0.366210  0.370063  0.134135  1
  O  O19  1  0.393621  0.395227  0.272491  1
  O  O20  1  0.366144  0.864074  0.134465  1
  O  O21  1  0.861022  0.369803  0.134191  1
  O  O22  1  0.418250  0.859379  0.288291  1
  O  O23  1  0.388643  0.389126  0.463340  1
  O  O24  1  0.857736  0.420233  0.288059  1
  O  O25  1  0.388760  0.388019  0.611538  1
  O  O26  1  0.388709  0.832366  0.463392  1
  O  O27  1  0.859846  0.863605  0.138782  1
  O  O28  1  0.832229  0.389079  0.463353  1
  O  O29  1  0.857364  0.859334  0.288304  1
  O  O30  1  0.391841  0.389978  0.797242  1
  O  O31  1  0.419076  0.860112  0.620082  1
  O  O32  1  0.860572  0.418958  0.619999  1
  O  O33  1  0.377769  0.374967  0.956570  1
  O  O34  1  0.860277  0.861101  0.472756  1
  O  O35  1  0.391543  0.824938  0.797343  1
  O  O36  1  0.826534  0.389888  0.797284  1
  O  O37  1  0.860608  0.860056  0.620091  1
  O  O38  1  0.415467  0.873815  0.944670  1
  O  O39  1  0.877351  0.411605  0.944655  1
  O  O40  1  0.863800  0.862614  0.803260  1
  O  O41  1  0.877130  0.873467  0.944843  1
