# generated using pymatgen
data_Zr6Co16Ge7
_symmetry_space_group_name_H-M   'P 1'
_cell_length_a   8.18882367
_cell_length_b   8.18852942
_cell_length_c   8.18962980
_cell_angle_alpha   60.00064965
_cell_angle_beta   59.99984928
_cell_angle_gamma   59.99820266
_symmetry_Int_Tables_number   1
_chemical_formula_structural   Zr6Co16Ge7
_chemical_formula_sum   'Zr6 Co16 Ge7'
_cell_volume   388.30451799
_cell_formula_units_Z   1
loop_
 _symmetry_equiv_pos_site_id
 _symmetry_equiv_pos_as_xyz
  1  'x, y, z'
loop_
 _atom_site_type_symbol
 _atom_site_label
 _atom_site_symmetry_multiplicity
 _atom_site_fract_x
 _atom_site_fract_y
 _atom_site_fract_z
 _atom_site_occupancy
  Zr  Zr0  1  0.794427  0.794450  0.205572  1
  Zr  Zr1  1  0.794443  0.205567  0.794410  1
  Zr  Zr2  1  0.205581  0.205558  0.794413  1
  Zr  Zr3  1  0.205561  0.794424  0.205599  1
  Zr  Zr4  1  0.205556  0.794454  0.794417  1
  Zr  Zr5  1  0.794442  0.205536  0.205596  1
  Co  Co6  1  0.620811  0.137564  0.620809  1
  Co  Co7  1  0.490167  0.169928  0.169962  1
  Co  Co8  1  0.379186  0.379192  0.862436  1
  Co  Co9  1  0.830061  0.830064  0.509822  1
  Co  Co10  1  0.169943  0.169923  0.490188  1
  Co  Co11  1  0.830060  0.509843  0.830042  1
  Co  Co12  1  0.169929  0.490187  0.169945  1
  Co  Co13  1  0.620809  0.620816  0.137573  1
  Co  Co14  1  0.169934  0.169932  0.169956  1
  Co  Co15  1  0.379190  0.862436  0.379190  1
  Co  Co16  1  0.620811  0.620825  0.620789  1
  Co  Co17  1  0.862443  0.379182  0.379196  1
  Co  Co18  1  0.379180  0.379180  0.379198  1
  Co  Co19  1  0.830072  0.830069  0.830039  1
  Co  Co20  1  0.137576  0.620817  0.620801  1
  Co  Co21  1  0.509823  0.830074  0.830037  1
  Ge  Ge22  1  0.000003  0.499994  0.500000  1
  Ge  Ge23  1  0.500000  0.999992  0.499995  1
  Ge  Ge24  1  0.499991  0.500008  0.500003  1
  Ge  Ge25  1  0.999990  0.499996  0.000010  1
  Ge  Ge26  1  0.499997  -0.000003  0.000002  1
  Ge  Ge27  1  0.500008  0.499990  0.000002  1
  Ge  Ge28  1  0.000005  0.000000  0.499997  1
