# generated using pymatgen
data_NaSrNb2
_symmetry_space_group_name_H-M   'P 1'
_cell_length_a   5.16879972
_cell_length_b   5.16886136
_cell_length_c   5.16887628
_cell_angle_alpha   60.00156970
_cell_angle_beta   60.00176010
_cell_angle_gamma   60.00070645
_symmetry_Int_Tables_number   1
_chemical_formula_structural   NaSrNb2
_chemical_formula_sum   'Na1 Sr1 Nb2'
_cell_volume   97.65151264
_cell_formula_units_Z   1
loop_
 _symmetry_equiv_pos_site_id
 _symmetry_equiv_pos_as_xyz
  1  'x, y, z'
loop_
 _atom_site_type_symbol
 _atom_site_label
 _atom_site_symmetry_multiplicity
 _atom_site_fract_x
 _atom_site_fract_y
 _atom_site_fract_z
 _atom_site_occupancy
  Na  Na0  1  0.000001  1.000000  0.999998  1
  Sr  Sr1  1  0.499999  0.500003  0.500004  1
  Nb  Nb2  1  0.750002  0.750005  0.749989  1
  Nb  Nb3  1  0.249998  0.249993  0.250009  1
