# generated using pymatgen
data_Gd3NbO7
_symmetry_space_group_name_H-M   'P 1'
_cell_length_a   7.65351418
_cell_length_b   17.92457030
_cell_length_c   9.45530411
_cell_angle_alpha   25.92165653
_cell_angle_beta   35.86478444
_cell_angle_gamma   48.47410902
_symmetry_Int_Tables_number   1
_chemical_formula_structural   Gd3NbO7
_chemical_formula_sum   'Gd6 Nb2 O14'
_cell_volume   321.01965546
_cell_formula_units_Z   2
loop_
 _symmetry_equiv_pos_site_id
 _symmetry_equiv_pos_as_xyz
  1  'x, y, z'
loop_
 _atom_site_type_symbol
 _atom_site_label
 _atom_site_symmetry_multiplicity
 _atom_site_fract_x
 _atom_site_fract_y
 _atom_site_fract_z
 _atom_site_occupancy
  Gd  Gd0  1  0.004624  0.006830  0.980733  1
  Gd  Gd1  1  0.491324  0.007921  0.991261  1
  Gd  Gd2  1  0.448561  0.246469  0.966295  1
  Gd  Gd3  1  0.865466  0.246706  0.047897  1
  Gd  Gd4  1  0.128953  0.763635  0.939929  1
  Gd  Gd5  1  0.562098  0.761615  0.010235  1
  Nb  Nb6  1  0.251960  0.507120  0.995240  1
  Nb  Nb7  1  0.768657  0.508189  0.975354  1
  O  O8  1  0.532271  0.002713  0.212160  1
  O  O9  1  0.338966  0.299090  0.211104  1
  O  O10  1  0.176624  0.505075  0.247149  1
  O  O11  1  0.468457  0.002360  0.777012  1
  O  O12  1  0.977148  0.139649  0.386436  1
  O  O13  1  0.159126  0.826499  0.038487  1
  O  O14  1  0.456671  0.298529  0.593598  1
  O  O15  1  0.841917  0.488843  0.229149  1
  O  O16  1  0.187026  0.502519  0.737418  1
  O  O17  1  0.553872  0.710348  0.381768  1
  O  O18  1  0.044845  0.825607  0.654358  1
  O  O19  1  0.813705  0.144570  0.042096  1
  O  O20  1  0.755603  0.489688  0.813745  1
  O  O21  1  0.662164  0.712493  0.771685  1
