# generated using pymatgen
data_Mg(HO)2
_symmetry_space_group_name_H-M   'P 1'
_cell_length_a   3.39540721
_cell_length_b   3.39541182
_cell_length_c   4.58540720
_cell_angle_alpha   90.00000007
_cell_angle_beta   89.99769432
_cell_angle_gamma   120.00004379
_symmetry_Int_Tables_number   1
_chemical_formula_structural   Mg(HO)2
_chemical_formula_sum   'Mg1 H2 O2'
_cell_volume   45.78177969
_cell_formula_units_Z   1
loop_
 _symmetry_equiv_pos_site_id
 _symmetry_equiv_pos_as_xyz
  1  'x, y, z'
loop_
 _atom_site_type_symbol
 _atom_site_label
 _atom_site_symmetry_multiplicity
 _atom_site_fract_x
 _atom_site_fract_y
 _atom_site_fract_z
 _atom_site_occupancy
  Mg  Mg0  1  0.000006  0.000003  0.972782  1
  H  H1  1  0.333333  0.666667  0.020449  1
  H  H2  1  0.666644  0.333322  0.417946  1
  O  O3  1  0.333353  0.666677  0.803602  1
  O  O4  1  0.666659  0.333329  0.204685  1
