# generated using pymatgen
data_Ni(HO)2
_symmetry_space_group_name_H-M   'P 1'
_cell_length_a   3.34114776
_cell_length_b   3.34116396
_cell_length_c   4.39649245
_cell_angle_alpha   90.00000003
_cell_angle_beta   90.00280658
_cell_angle_gamma   120.00015796
_symmetry_Int_Tables_number   1
_chemical_formula_structural   Ni(HO)2
_chemical_formula_sum   'Ni1 H2 O2'
_cell_volume   42.50399405
_cell_formula_units_Z   1
loop_
 _symmetry_equiv_pos_site_id
 _symmetry_equiv_pos_as_xyz
  1  'x, y, z'
loop_
 _atom_site_type_symbol
 _atom_site_label
 _atom_site_symmetry_multiplicity
 _atom_site_fract_x
 _atom_site_fract_y
 _atom_site_fract_z
 _atom_site_occupancy
  Ni  Ni0  1  0.999994  0.999997  0.988539  1
  H  H1  1  0.666673  0.333337  0.017026  1
  H  H2  1  0.333358  0.666678  0.430256  1
  O  O3  1  0.666639  0.333319  0.790658  1
  O  O4  1  0.333341  0.666670  0.207257  1
