# generated using pymatgen
data_Mn(HO)2
_symmetry_space_group_name_H-M   'P 1'
_cell_length_a   3.60670019
_cell_length_b   3.60682598
_cell_length_c   4.46753696
_cell_angle_alpha   90.00000003
_cell_angle_beta   90.00274837
_cell_angle_gamma   120.00116149
_symmetry_Int_Tables_number   1
_chemical_formula_structural   Mn(HO)2
_chemical_formula_sum   'Mn1 H2 O2'
_cell_volume   50.33023219
_cell_formula_units_Z   1
loop_
 _symmetry_equiv_pos_site_id
 _symmetry_equiv_pos_as_xyz
  1  'x, y, z'
loop_
 _atom_site_type_symbol
 _atom_site_label
 _atom_site_symmetry_multiplicity
 _atom_site_fract_x
 _atom_site_fract_y
 _atom_site_fract_z
 _atom_site_occupancy
  Mn  Mn0  1  0.999994  0.999997  0.977243  1
  H  H1  1  0.666687  0.333343  0.017037  1
  H  H2  1  0.333356  0.666679  0.425462  1
  O  O3  1  0.666633  0.333316  0.795794  1
  O  O4  1  0.333332  0.666666  0.206939  1
