# generated using pymatgen
data_Nd3InN
_symmetry_space_group_name_H-M   'P 1'
_cell_length_a   6.15978499
_cell_length_b   6.10525342
_cell_length_c   6.07095989
_cell_angle_alpha   90.07053494
_cell_angle_beta   89.34753675
_cell_angle_gamma   90.46456423
_symmetry_Int_Tables_number   1
_chemical_formula_structural   Nd3InN
_chemical_formula_sum   'Nd3 In1 N1'
_cell_volume   228.28842649
_cell_formula_units_Z   1
loop_
 _symmetry_equiv_pos_site_id
 _symmetry_equiv_pos_as_xyz
  1  'x, y, z'
loop_
 _atom_site_type_symbol
 _atom_site_label
 _atom_site_symmetry_multiplicity
 _atom_site_fract_x
 _atom_site_fract_y
 _atom_site_fract_z
 _atom_site_occupancy
  Nd  Nd0  1  0.502830  0.499146  0.000440  1
  Nd  Nd1  1  0.497158  0.001464  0.501068  1
  Nd  Nd2  1  0.000742  0.500655  0.501122  1
  In  In3  1  0.499503  0.499148  0.499241  1
  N  N4  1  -0.000233  -0.000414  -0.001872  1
