# generated using pymatgen
data_Bi12Ir12O41
_symmetry_space_group_name_H-M   'P 1'
_cell_length_a   7.35676138
_cell_length_b   7.35676119
_cell_length_c   66.17682341
_cell_angle_alpha   59.98199938
_cell_angle_beta   59.98200025
_cell_angle_gamma   59.99989099
_symmetry_Int_Tables_number   1
_chemical_formula_structural   Bi12Ir12O41
_chemical_formula_sum   'Bi36 Ir36 O123'
_cell_volume   2531.89491191
_cell_formula_units_Z   3
loop_
 _symmetry_equiv_pos_site_id
 _symmetry_equiv_pos_as_xyz
  1  'x, y, z'
loop_
 _atom_site_type_symbol
 _atom_site_label
 _atom_site_symmetry_multiplicity
 _atom_site_fract_x
 _atom_site_fract_y
 _atom_site_fract_z
 _atom_site_occupancy
  Bi  Bi0  1  0.503112  0.986689  0.056345  1
  Bi  Bi1  1  0.503104  0.503104  0.056344  1
  Bi  Bi2  1  0.508167  0.508167  0.108389  1
  Bi  Bi3  1  0.986689  0.503112  0.056345  1
  Bi  Bi4  1  0.501485  0.501485  0.165976  1
  Bi  Bi5  1  0.499937  0.000151  0.277775  1
  Bi  Bi6  1  0.500542  0.500542  0.222042  1
  Bi  Bi7  1  0.501488  0.003263  0.165974  1
  Bi  Bi8  1  0.499934  0.499934  0.277776  1
  Bi  Bi9  1  0.003263  0.501488  0.165974  1
  Bi  Bi10  1  0.500025  0.500025  0.333324  1
  Bi  Bi11  1  0.500009  0.500009  0.388883  1
  Bi  Bi12  1  0.000040  0.500038  0.499987  1
  Bi  Bi13  1  0.000151  0.499937  0.277775  1
  Bi  Bi14  1  0.500002  0.500002  0.444443  1
  Bi  Bi15  1  0.500012  0.999998  0.388883  1
  Bi  Bi16  1  0.999998  0.500012  0.388883  1
  Bi  Bi17  1  0.500038  0.500038  0.499987  1
  Bi  Bi18  1  0.500114  0.500114  0.555518  1
  Bi  Bi19  1  0.500038  0.000040  0.499987  1
  Bi  Bi20  1  0.500022  0.500022  0.611118  1
  Bi  Bi21  1  0.499445  0.499445  0.666854  1
  Bi  Bi22  1  0.500017  -0.000067  0.611117  1
  Bi  Bi23  1  0.498541  0.498541  0.722931  1
  Bi  Bi24  1  -0.000067  0.500017  0.611117  1
  Bi  Bi25  1  0.491153  0.491153  0.780724  1
  Bi  Bi26  1  0.498536  0.996575  0.722929  1
  Bi  Bi27  1  0.996575  0.498536  0.722929  1
  Bi  Bi28  1  0.495376  0.495376  0.833037  1
  Bi  Bi29  1  0.497164  0.014764  0.943433  1
  Bi  Bi30  1  0.496095  0.496095  0.890193  1
  Bi  Bi31  1  0.495358  0.011942  0.833035  1
  Bi  Bi32  1  0.011942  0.495358  0.833035  1
  Bi  Bi33  1  0.497172  0.497172  0.943432  1
  Bi  Bi34  1  0.500285  0.500285  0.999905  1
  Bi  Bi35  1  0.014764  0.497164  0.943433  1
  Ir  Ir36  1  0.000135  0.000135  0.000021  1
  Ir  Ir37  1  0.499548  0.000134  0.000020  1
  Ir  Ir38  1  0.000134  0.499548  0.000020  1
  Ir  Ir39  1  0.000148  0.000148  0.055505  1
  Ir  Ir40  1  0.499968  0.999589  0.111204  1
  Ir  Ir41  1  0.999589  0.499968  0.111204  1
  Ir  Ir42  1  0.499610  0.000265  0.222206  1
  Ir  Ir43  1  0.999590  0.999590  0.111204  1
  Ir  Ir44  1  0.000265  0.499610  0.222206  1
  Ir  Ir45  1  0.000000  0.000000  0.277776  1
  Ir  Ir46  1  0.999784  0.999784  0.166736  1
  Ir  Ir47  1  0.500053  0.000154  0.333294  1
  Ir  Ir48  1  0.000263  0.000263  0.222206  1
  Ir  Ir49  1  0.000154  0.500053  0.333294  1
  Ir  Ir50  1  0.000031  0.000031  0.499990  1
  Ir  Ir51  1  0.500029  -0.000056  0.444454  1
  Ir  Ir52  1  0.000153  0.000153  0.333294  1
  Ir  Ir53  1  -0.000056  0.500029  0.444454  1
  Ir  Ir54  1  0.000056  0.000056  0.388872  1
  Ir  Ir55  1  0.500120  0.000315  0.555471  1
  Ir  Ir56  1  -0.000059  -0.000059  0.444454  1
  Ir  Ir57  1  0.000315  0.500120  0.555471  1
  Ir  Ir58  1  0.000147  0.000147  0.722173  1
  Ir  Ir59  1  0.000318  0.000318  0.555471  1
  Ir  Ir60  1  0.500347  0.999963  0.666635  1
  Ir  Ir61  1  0.000151  0.000151  0.611059  1
  Ir  Ir62  1  0.999963  0.500347  0.666635  1
  Ir  Ir63  1  0.999963  0.999963  0.666635  1
  Ir  Ir64  1  0.499848  -0.000233  0.777847  1
  Ir  Ir65  1  -0.000233  0.499848  0.777847  1
  Ir  Ir66  1  0.500773  0.999828  0.888841  1
  Ir  Ir67  1  -0.000231  -0.000231  0.777847  1
  Ir  Ir68  1  0.999828  0.500773  0.888841  1
  Ir  Ir69  1  0.999923  0.999923  0.833361  1
  Ir  Ir70  1  0.999666  0.999666  0.944557  1
  Ir  Ir71  1  0.999830  0.999830  0.888842  1
  O  O72  1  0.084271  0.084271  0.074002  1
  O  O73  1  0.081464  0.665633  0.009698  1
  O  O74  1  0.367419  0.367419  0.044193  1
  O  O75  1  0.084273  0.665444  0.074002  1
  O  O76  1  0.665633  0.081464  0.009698  1
  O  O77  1  0.330998  0.330998  0.102206  1
  O  O78  1  0.081804  0.081804  0.185367  1
  O  O79  1  0.084653  0.667546  0.120028  1
  O  O80  1  0.330031  0.919268  0.036824  1
  O  O81  1  0.665444  0.084273  0.074002  1
  O  O82  1  0.665623  0.665623  0.009699  1
  O  O83  1  0.081806  0.668102  0.185366  1
  O  O84  1  0.330999  0.918137  0.102206  1
  O  O85  1  0.667546  0.084653  0.120028  1
  O  O86  1  0.919268  0.330031  0.036824  1
  O  O87  1  0.387253  0.387253  0.148695  1
  O  O88  1  0.081647  0.081647  0.296498  1
  O  O89  1  0.331079  0.331079  0.213237  1
  O  O90  1  0.081513  0.668484  0.231281  1
  O  O91  1  0.332986  0.917331  0.148038  1
  O  O92  1  0.668102  0.081806  0.185366  1
  O  O93  1  0.918137  0.330999  0.102206  1
  O  O94  1  0.667548  0.667548  0.120028  1
  O  O95  1  0.919273  0.919273  0.036823  1
  O  O96  1  0.081647  0.668213  0.296498  1
  O  O97  1  0.626904  0.626904  0.179920  1
  O  O98  1  0.331076  0.918714  0.213238  1
  O  O99  1  0.668484  0.081513  0.231281  1
  O  O100  1  0.375577  0.375577  0.263697  1
  O  O101  1  0.917331  0.332986  0.148038  1
  O  O102  1  0.081849  0.081849  0.407575  1
  O  O103  1  0.081442  0.668443  0.342407  1
  O  O104  1  0.331499  0.331499  0.324273  1
  O  O105  1  0.331856  0.918246  0.259072  1
  O  O106  1  0.668213  0.081647  0.296498  1
  O  O107  1  0.918714  0.331076  0.213238  1
  O  O108  1  0.668481  0.668481  0.231281  1
  O  O109  1  0.917335  0.917335  0.148038  1
  O  O110  1  0.375255  0.375255  0.374914  1
  O  O111  1  0.624688  0.624688  0.291772  1
  O  O112  1  0.331497  0.918527  0.324273  1
  O  O113  1  0.918246  0.331856  0.259072  1
  O  O114  1  0.668443  0.081442  0.342407  1
  O  O115  1  0.081853  0.668134  0.407575  1
  O  O116  1  0.331676  0.331676  0.435357  1
  O  O117  1  0.081677  0.081677  0.518721  1
  O  O118  1  0.081563  0.668358  0.453526  1
  O  O119  1  0.331867  0.918229  0.370184  1
  O  O120  1  0.668134  0.081853  0.407575  1
  O  O121  1  0.668444  0.668444  0.342407  1
  O  O122  1  0.918527  0.331497  0.324273  1
  O  O123  1  0.918249  0.918249  0.259071  1
  O  O124  1  0.668358  0.081563  0.453526  1
  O  O125  1  0.624803  0.624803  0.402844  1
  O  O126  1  0.375278  0.375278  0.486017  1
  O  O127  1  0.918229  0.331867  0.370184  1
  O  O128  1  0.081683  0.668153  0.518720  1
  O  O129  1  0.331676  0.918436  0.435358  1
  O  O130  1  0.331793  0.918225  0.481306  1
  O  O131  1  0.081847  0.081847  0.629826  1
  O  O132  1  0.331568  0.331568  0.546487  1
  O  O133  1  0.081557  0.668380  0.564632  1
  O  O134  1  0.668153  0.081683  0.518720  1
  O  O135  1  0.918436  0.331676  0.435358  1
  O  O136  1  0.668357  0.668357  0.453525  1
  O  O137  1  0.918233  0.918233  0.370185  1
  O  O138  1  0.331559  0.918474  0.546487  1
  O  O139  1  0.668380  0.081557  0.564632  1
  O  O140  1  0.918225  0.331793  0.481306  1
  O  O141  1  0.375285  0.375285  0.597127  1
  O  O142  1  0.624752  0.624752  0.513972  1
  O  O143  1  0.081852  0.667875  0.629826  1
  O  O144  1  0.331863  0.918166  0.592421  1
  O  O145  1  0.331663  0.331663  0.657598  1
  O  O146  1  0.082943  0.082943  0.740820  1
  O  O147  1  0.081579  0.668627  0.675688  1
  O  O148  1  0.918228  0.918228  0.481306  1
  O  O149  1  0.667875  0.081852  0.629826  1
  O  O150  1  0.918474  0.331559  0.546487  1
  O  O151  1  0.668371  0.668371  0.564633  1
  O  O152  1  0.668627  0.081579  0.675688  1
  O  O153  1  0.918166  0.331863  0.592421  1
  O  O154  1  0.624409  0.624409  0.625197  1
  O  O155  1  0.373105  0.373105  0.708965  1
  O  O156  1  0.082946  0.666731  0.740820  1
  O  O157  1  0.331665  0.918293  0.657599  1
  O  O158  1  0.332758  0.332758  0.768819  1
  O  O159  1  0.081445  0.081445  0.852028  1
  O  O160  1  0.332155  0.917918  0.703557  1
  O  O161  1  0.082054  0.669042  0.786651  1
  O  O162  1  0.918172  0.918172  0.592420  1
  O  O163  1  0.666731  0.082946  0.740820  1
  O  O164  1  0.918293  0.331665  0.657599  1
  O  O165  1  0.668624  0.668624  0.675687  1
  O  O166  1  0.669042  0.082054  0.786651  1
  O  O167  1  0.917918  0.332155  0.703557  1
  O  O168  1  0.332758  0.915111  0.768819  1
  O  O169  1  0.081444  0.668856  0.852029  1
  O  O170  1  0.612825  0.612825  0.740169  1
  O  O171  1  0.334619  0.334619  0.879467  1
  O  O172  1  0.080743  0.080743  0.963221  1
  O  O173  1  0.334793  0.915623  0.814884  1
  O  O174  1  0.081289  0.668567  0.897954  1
  O  O175  1  0.668856  0.081444  0.852029  1
  O  O176  1  0.915111  0.332758  0.768819  1
  O  O177  1  0.917920  0.917920  0.703557  1
  O  O178  1  0.669040  0.669040  0.786651  1
  O  O179  1  0.668567  0.081289  0.897954  1
  O  O180  1  0.915623  0.334793  0.814884  1
  O  O181  1  0.624943  0.624943  0.847241  1
  O  O182  1  0.334623  0.915555  0.879468  1
  O  O183  1  0.080746  0.669540  0.963220  1
  O  O184  1  0.333994  0.333994  0.990374  1
  O  O185  1  0.334364  0.915749  0.926015  1
  O  O186  1  0.915555  0.334623  0.879468  1
  O  O187  1  0.669540  0.080746  0.963220  1
  O  O188  1  0.668569  0.668569  0.897953  1
  O  O189  1  0.915624  0.915624  0.814884  1
  O  O190  1  0.632244  0.632244  0.955919  1
  O  O191  1  0.915749  0.334364  0.926015  1
  O  O192  1  0.333983  0.918648  0.990375  1
  O  O193  1  0.918648  0.333983  0.990375  1
  O  O194  1  0.915751  0.915751  0.926015  1
