# generated using pymatgen
data_TeHO3
_symmetry_space_group_name_H-M   'P 1'
_cell_length_a   8.34849777
_cell_length_b   11.71524473
_cell_length_c   4.95951553
_cell_angle_alpha   91.19240238
_cell_angle_beta   89.97269758
_cell_angle_gamma   89.96703021
_symmetry_Int_Tables_number   1
_chemical_formula_structural   TeHO3
_chemical_formula_sum   'Te8 H8 O24'
_cell_volume   484.95872308
_cell_formula_units_Z   8
loop_
 _symmetry_equiv_pos_site_id
 _symmetry_equiv_pos_as_xyz
  1  'x, y, z'
loop_
 _atom_site_type_symbol
 _atom_site_label
 _atom_site_symmetry_multiplicity
 _atom_site_fract_x
 _atom_site_fract_y
 _atom_site_fract_z
 _atom_site_occupancy
  Te  Te0  1  0.462771  0.608978  0.012233  1
  Te  Te1  1  0.534656  0.380401  0.513767  1
  Te  Te2  1  0.965688  0.880337  0.513206  1
  Te  Te3  1  0.037159  0.109144  0.011352  1
  Te  Te4  1  0.352384  0.929247  0.184793  1
  Te  Te5  1  0.659984  0.074371  0.617914  1
  Te  Te6  1  0.839818  0.574583  0.618907  1
  Te  Te7  1  0.147742  0.429229  0.185658  1
  H  H8  1  0.233354  0.703506  0.770600  1
  H  H9  1  0.663529  0.316745  0.077197  1
  H  H10  1  0.834825  0.817955  0.077654  1
  H  H11  1  0.266772  0.203419  0.771393  1
  H  H12  1  0.527077  0.142831  0.015985  1
  H  H13  1  0.971120  0.643064  0.018375  1
  H  H14  1  0.500154  0.718659  0.451948  1
  H  H15  1  0.991098  0.218990  0.449486  1
  O  O16  1  0.260417  0.578122  0.195578  1
  O  O17  1  0.732112  0.426509  0.701751  1
  O  O18  1  0.767902  0.926367  0.701337  1
  O  O19  1  0.239344  0.077987  0.195215  1
  O  O20  1  0.408281  0.476077  0.777617  1
  O  O21  1  0.583254  0.514824  0.275511  1
  O  O22  1  0.916572  0.014890  0.274672  1
  O  O23  1  0.091805  0.976056  0.777016  1
  O  O24  1  0.349874  0.717809  0.786555  1
  O  O25  1  0.650947  0.284254  0.256746  1
  O  O26  1  0.849936  0.784343  0.255396  1
  O  O27  1  0.150652  0.218272  0.788206  1
  O  O28  1  0.330109  0.347172  0.333791  1
  O  O29  1  0.646757  0.654217  0.808178  1
  O  O30  1  0.853503  0.154081  0.805528  1
  O  O31  1  0.170440  0.847128  0.333563  1
  O  O32  1  0.452568  0.970994  0.515313  1
  O  O33  1  0.564360  0.063202  0.980793  1
  O  O34  1  0.935389  0.563227  0.981467  1
  O  O35  1  0.047410  0.470974  0.516070  1
  O  O36  1  0.497684  0.740679  0.260194  1
  O  O37  1  0.513629  0.248493  0.723871  1
  O  O38  1  0.986841  0.748323  0.722544  1
  O  O39  1  0.001783  0.240963  0.258712  1
