# generated using pymatgen
data_Sr19In8N7
_symmetry_space_group_name_H-M   'P 1'
_cell_length_a   11.14307252
_cell_length_b   11.14742055
_cell_length_c   11.14747288
_cell_angle_alpha   60.01062550
_cell_angle_beta   60.01883258
_cell_angle_gamma   60.05383525
_symmetry_Int_Tables_number   1
_chemical_formula_structural   Sr19In8N7
_chemical_formula_sum   'Sr19 In8 N7'
_cell_volume   979.74685848
_cell_formula_units_Z   1
loop_
 _symmetry_equiv_pos_site_id
 _symmetry_equiv_pos_as_xyz
  1  'x, y, z'
loop_
 _atom_site_type_symbol
 _atom_site_label
 _atom_site_symmetry_multiplicity
 _atom_site_fract_x
 _atom_site_fract_y
 _atom_site_fract_z
 _atom_site_occupancy
  Sr  Sr0  1  0.833277  0.166868  0.166963  1
  Sr  Sr1  1  0.499931  0.170596  0.829681  1
  Sr  Sr2  1  0.500107  0.499946  0.829545  1
  Sr  Sr3  1  0.166937  0.166971  0.833188  1
  Sr  Sr4  1  0.170329  0.500074  0.829632  1
  Sr  Sr5  1  0.167064  0.833118  0.832989  1
  Sr  Sr6  1  0.500135  0.829363  0.170381  1
  Sr  Sr7  1  0.500014  0.829391  0.499920  1
  Sr  Sr8  1  0.167008  0.833026  0.166816  1
  Sr  Sr9  1  0.499921  0.170514  0.499985  1
  Sr  Sr10  1  0.170271  0.500159  0.500052  1
  Sr  Sr11  1  0.829642  0.499691  0.500049  1
  Sr  Sr12  1  0.829802  0.499733  0.170563  1
  Sr  Sr13  1  0.500152  0.499995  0.170460  1
  Sr  Sr14  1  0.499998  0.499940  0.500035  1
  Sr  Sr15  1  0.833180  0.832967  0.166894  1
  Sr  Sr16  1  0.170337  0.829509  0.499953  1
  Sr  Sr17  1  0.829498  0.170286  0.500126  1
  Sr  Sr18  1  0.833055  0.166775  0.833224  1
  In  In19  1  0.178217  0.465208  0.178300  1
  In  In20  1  0.821611  0.534859  0.821862  1
  In  In21  1  0.534295  0.822462  0.821648  1
  In  In22  1  0.465440  0.178054  0.178165  1
  In  In23  1  0.178460  0.178169  0.178177  1
  In  In24  1  0.178223  0.178175  0.465324  1
  In  In25  1  0.821566  0.822125  0.821875  1
  In  In26  1  0.821720  0.822030  0.534000  1
  N  N27  1  0.326188  0.673753  0.326280  1
  N  N28  1  0.673752  0.326255  0.673748  1
  N  N29  1  0.326122  0.673709  0.673852  1
  N  N30  1  0.673833  0.326249  0.326284  1
  N  N31  1  0.326213  0.326306  0.673734  1
  N  N32  1  0.673791  0.673621  0.326250  1
  N  N33  1  0.999910  0.000105  0.000043  1
