# generated using pymatgen
data_Dy3TaO7
_symmetry_space_group_name_H-M   'P 1'
_cell_length_a   7.59418623
_cell_length_b   17.23971849
_cell_length_c   9.29887315
_cell_angle_alpha   25.93045777
_cell_angle_beta   35.17467947
_cell_angle_gamma   48.54730349
_symmetry_Int_Tables_number   1
_chemical_formula_structural   Dy3TaO7
_chemical_formula_sum   'Dy6 Ta2 O14'
_cell_volume   293.47537462
_cell_formula_units_Z   2
loop_
 _symmetry_equiv_pos_site_id
 _symmetry_equiv_pos_as_xyz
  1  'x, y, z'
loop_
 _atom_site_type_symbol
 _atom_site_label
 _atom_site_symmetry_multiplicity
 _atom_site_fract_x
 _atom_site_fract_y
 _atom_site_fract_z
 _atom_site_occupancy
  Dy  Dy0  1  0.000821  0.999816  0.002962  1
  Dy  Dy1  1  0.501470  0.999441  0.002831  1
  Dy  Dy2  1  0.404987  0.259929  0.955736  1
  Dy  Dy3  1  0.857748  0.259530  0.004243  1
  Dy  Dy4  1  0.146090  0.738349  0.996779  1
  Dy  Dy5  1  0.593893  0.739485  0.047409  1
  Ta  Ta6  1  0.219863  0.499594  0.003368  1
  Ta  Ta7  1  0.730366  0.500484  0.993390  1
  O  O8  1  0.509993  0.000154  0.242937  1
  O  O9  1  0.335882  0.261723  0.240771  1
  O  O10  1  0.307193  0.523746  0.163056  1
  O  O11  1  0.896915  0.264280  0.239448  1
  O  O12  1  0.357906  0.257230  0.726680  1
  O  O13  1  0.078854  0.744797  0.272302  1
  O  O14  1  0.778550  0.477477  0.265743  1
  O  O15  1  0.224795  0.525457  0.739026  1
  O  O16  1  0.926524  0.263615  0.710007  1
  O  O17  1  0.099160  0.745315  0.752819  1
  O  O18  1  0.627351  0.730850  0.307295  1
  O  O19  1  0.721538  0.477069  0.824394  1
  O  O20  1  0.663899  0.734976  0.765610  1
  O  O21  1  0.494938  0.000552  0.757187  1
