# generated using pymatgen
data_KYb3F10
_symmetry_space_group_name_H-M   'P 1'
_cell_length_a   8.23443565
_cell_length_b   8.23818003
_cell_length_c   8.23605921
_cell_angle_alpha   60.00674786
_cell_angle_beta   59.98830630
_cell_angle_gamma   60.02011117
_symmetry_Int_Tables_number   1
_chemical_formula_structural   KYb3F10
_chemical_formula_sum   'K2 Yb6 F20'
_cell_volume   395.11114837
_cell_formula_units_Z   2
loop_
 _symmetry_equiv_pos_site_id
 _symmetry_equiv_pos_as_xyz
  1  'x, y, z'
loop_
 _atom_site_type_symbol
 _atom_site_label
 _atom_site_symmetry_multiplicity
 _atom_site_fract_x
 _atom_site_fract_y
 _atom_site_fract_z
 _atom_site_occupancy
  Yb  Yb0  1  0.771544  0.772134  0.228320  1
  Yb  Yb1  1  0.772100  0.228164  0.772055  1
  Yb  Yb2  1  0.772155  0.227726  0.227807  1
  Yb  Yb3  1  0.227816  0.227828  0.772122  1
  Yb  Yb4  1  0.228322  0.772077  0.771647  1
  Yb  Yb5  1  0.228030  0.772318  0.227896  1
  K  K6  1  0.749980  0.749931  0.749950  1
  K  K7  1  0.250031  0.249820  0.249998  1
  F  F8  1  0.163579  0.836354  0.500105  1
  F  F9  1  0.163484  0.499908  0.836520  1
  F  F10  1  0.163664  0.499970  0.499917  1
  F  F11  1  0.499946  0.500012  0.836597  1
  F  F12  1  0.340585  0.886479  0.886458  1
  F  F13  1  0.113625  0.113622  0.113538  1
  F  F14  1  0.886375  0.886421  0.340707  1
  F  F15  1  0.500038  0.836463  0.499990  1
  F  F16  1  0.886452  0.340757  0.886412  1
  F  F17  1  0.886479  0.886562  0.886444  1
  F  F18  1  0.113516  0.659476  0.113495  1
  F  F19  1  0.836341  0.163634  0.500077  1
  F  F20  1  0.499924  0.499982  0.163570  1
  F  F21  1  0.500048  0.836262  0.163661  1
  F  F22  1  0.500045  0.163643  0.836285  1
  F  F23  1  0.836533  0.499974  0.499933  1
  F  F24  1  0.659355  0.113457  0.113563  1
  F  F25  1  0.836501  0.499883  0.163541  1
  F  F26  1  0.113512  0.113449  0.659433  1
  F  F27  1  0.500019  0.163694  0.499959  1
