# generated using pymatgen
data_Fe21(WC3)2
_symmetry_space_group_name_H-M   'P 1'
_cell_length_a   7.40756547
_cell_length_b   7.40652496
_cell_length_c   7.40749917
_cell_angle_alpha   60.00179156
_cell_angle_beta   60.00295717
_cell_angle_gamma   60.00458541
_symmetry_Int_Tables_number   1
_chemical_formula_structural   Fe21(WC3)2
_chemical_formula_sum   'Fe21 W2 C6'
_cell_volume   287.39369566
_cell_formula_units_Z   1
loop_
 _symmetry_equiv_pos_site_id
 _symmetry_equiv_pos_as_xyz
  1  'x, y, z'
loop_
 _atom_site_type_symbol
 _atom_site_label
 _atom_site_symmetry_multiplicity
 _atom_site_fract_x
 _atom_site_fract_y
 _atom_site_fract_z
 _atom_site_occupancy
  Fe  Fe0  1  0.616393  0.616354  0.150933  1
  Fe  Fe1  1  0.383664  0.383678  0.383633  1
  Fe  Fe2  1  0.661725  -0.000026  0.338283  1
  Fe  Fe3  1  0.999962  -0.000005  0.338284  1
  Fe  Fe4  1  0.338298  -0.000018  0.661714  1
  Fe  Fe5  1  0.338312  0.000002  0.999947  1
  Fe  Fe6  1  -0.000001  0.338294  0.000004  1
  Fe  Fe7  1  0.661727  0.000005  0.000015  1
  Fe  Fe8  1  0.000010  0.338235  0.661723  1
  Fe  Fe9  1  0.338292  0.661753  0.999939  1
  Fe  Fe10  1  0.616355  0.150966  0.616381  1
  Fe  Fe11  1  -0.000016  0.661725  0.000009  1
  Fe  Fe12  1  0.616364  0.616305  0.616371  1
  Fe  Fe13  1  0.150916  0.616335  0.616418  1
  Fe  Fe14  1  0.000013  0.000013  0.999990  1
  Fe  Fe15  1  0.000019  0.000004  0.661738  1
  Fe  Fe16  1  0.383692  0.848995  0.383632  1
  Fe  Fe17  1  0.849031  0.383686  0.383628  1
  Fe  Fe18  1  0.661722  0.338240  0.000005  1
  Fe  Fe19  1  -0.000065  0.661763  0.338279  1
  Fe  Fe20  1  0.383648  0.383663  0.849036  1
  W  W21  1  0.249964  0.250031  0.249967  1
  W  W22  1  0.749981  0.749980  0.750051  1
  C  C23  1  0.280280  0.719721  0.280286  1
  C  C24  1  0.280282  0.280213  0.719739  1
  C  C25  1  0.280261  0.719788  0.719732  1
  C  C26  1  0.719721  0.280250  0.280283  1
  C  C27  1  0.719741  0.719768  0.280263  1
  C  C28  1  0.719711  0.280280  0.719717  1
