# generated using pymatgen
data_H4SO5
_symmetry_space_group_name_H-M   'P 1'
_cell_length_a   7.66924954
_cell_length_b   6.96571432
_cell_length_c   8.83197212
_cell_angle_alpha   90.00000000
_cell_angle_beta   108.69469056
_cell_angle_gamma   90.00000000
_symmetry_Int_Tables_number   1
_chemical_formula_structural   H4SO5
_chemical_formula_sum   'H16 S4 O20'
_cell_volume   446.92663673
_cell_formula_units_Z   4
loop_
 _symmetry_equiv_pos_site_id
 _symmetry_equiv_pos_as_xyz
  1  'x, y, z'
loop_
 _atom_site_type_symbol
 _atom_site_label
 _atom_site_symmetry_multiplicity
 _atom_site_fract_x
 _atom_site_fract_y
 _atom_site_fract_z
 _atom_site_occupancy
  H  H0  1  0.609733  0.686988  0.119113  1
  H  H1  1  0.609733  0.813012  0.619113  1
  H  H2  1  0.035286  0.659224  0.056482  1
  H  H3  1  0.035286  0.840776  0.556482  1
  H  H4  1  0.639971  0.309464  0.721869  1
  H  H5  1  0.769066  0.446084  0.877747  1
  H  H6  1  0.633727  0.269883  0.906071  1
  H  H7  1  0.265056  0.568122  0.647962  1
  H  H8  1  0.224851  0.957905  0.576813  1
  H  H9  1  0.192868  0.895563  0.737625  1
  H  H10  1  0.192868  0.604437  0.237625  1
  H  H11  1  0.265056  0.931878  0.147962  1
  H  H12  1  0.224851  0.542095  0.076813  1
  H  H13  1  0.769066  0.053916  0.377747  1
  H  H14  1  0.639971  0.190536  0.221869  1
  H  H15  1  0.633727  0.230117  0.406071  1
  S  S16  1  0.314904  0.332359  0.510649  1
  S  S17  1  0.733725  0.810975  0.953375  1
  S  S18  1  0.733725  0.689025  0.453375  1
  S  S19  1  0.314904  0.167641  0.010649  1
  O  O20  1  0.226751  0.036079  0.881426  1
  O  O21  1  0.837341  0.555064  0.572608  1
  O  O22  1  0.837341  0.944936  0.072608  1
  O  O23  1  0.226751  0.463921  0.381426  1
  O  O24  1  0.314317  0.436278  0.671993  1
  O  O25  1  0.645152  0.886943  0.792850  1
  O  O26  1  0.645152  0.613057  0.292850  1
  O  O27  1  0.314317  0.063722  0.171993  1
  O  O28  1  0.513855  0.297927  0.536426  1
  O  O29  1  0.568740  0.724215  0.000829  1
  O  O30  1  0.568740  0.775785  0.500829  1
  O  O31  1  0.513855  0.202073  0.036426  1
  O  O32  1  0.214255  0.153256  0.501301  1
  O  O33  1  0.854840  0.638889  0.947800  1
  O  O34  1  0.854840  0.861111  0.447800  1
  O  O35  1  0.214255  0.346744  0.001301  1
  O  O36  1  0.712942  0.312203  0.841147  1
  O  O37  1  0.179019  0.841665  0.627099  1
  O  O38  1  0.179019  0.658335  0.127099  1
  O  O39  1  0.712942  0.187797  0.341147  1
