# generated using pymatgen
data_Fe2SiO4
_symmetry_space_group_name_H-M   'P 1'
_cell_length_a   5.88746824
_cell_length_b   5.88746829
_cell_length_c   18.05539843
_cell_angle_alpha   60.69598054
_cell_angle_beta   60.69598013
_cell_angle_gamma   59.95823117
_symmetry_Int_Tables_number   1
_chemical_formula_structural   Fe2SiO4
_chemical_formula_sum   'Fe12 Si6 O24'
_cell_volume   446.99081470
_cell_formula_units_Z   6
loop_
 _symmetry_equiv_pos_site_id
 _symmetry_equiv_pos_as_xyz
  1  'x, y, z'
loop_
 _atom_site_type_symbol
 _atom_site_label
 _atom_site_symmetry_multiplicity
 _atom_site_fract_x
 _atom_site_fract_y
 _atom_site_fract_z
 _atom_site_occupancy
  Fe  Fe0  1  0.261464  0.261464  0.072534  1
  Fe  Fe1  1  0.124531  0.626547  0.206888  1
  Fe  Fe2  1  0.261803  0.261803  0.408268  1
  Fe  Fe3  1  0.626547  0.124531  0.206888  1
  Fe  Fe4  1  0.625644  0.625644  0.207323  1
  Fe  Fe5  1  0.120709  0.618985  0.548060  1
  Fe  Fe6  1  0.618985  0.120709  0.548060  1
  Fe  Fe7  1  0.126380  0.630121  0.871239  1
  Fe  Fe8  1  0.617908  0.617908  0.547594  1
  Fe  Fe9  1  0.620959  0.620959  0.712096  1
  Fe  Fe10  1  0.630121  0.126380  0.871239  1
  Fe  Fe11  1  0.630734  0.630734  0.870764  1
  Si  Si12  1  0.995659  0.995659  0.004318  1
  Si  Si13  1  0.989393  0.989393  0.343910  1
  Si  Si14  1  0.612508  0.612508  0.054584  1
  Si  Si15  1  0.998196  0.998196  0.668536  1
  Si  Si16  1  0.251433  0.251433  0.748615  1
  Si  Si17  1  0.607933  0.607933  0.392215  1
  O  O18  1  0.411147  0.411147  0.110574  1
  O  O19  1  0.409095  0.845230  0.111550  1
  O  O20  1  0.387491  0.387491  0.276988  1
  O  O21  1  0.403983  0.403983  0.453140  1
  O  O22  1  0.351224  0.864579  0.305768  1
  O  O23  1  0.845230  0.409095  0.111550  1
  O  O24  1  0.864579  0.351224  0.305768  1
  O  O25  1  0.882338  0.882338  0.117496  1
  O  O26  1  0.404429  0.835238  0.451628  1
  O  O27  1  0.362628  0.362628  0.637506  1
  O  O28  1  0.344420  0.882706  0.629806  1
  O  O29  1  0.367600  0.367600  0.786086  1
  O  O30  1  0.835238  0.404429  0.451628  1
  O  O31  1  0.866524  0.866524  0.305446  1
  O  O32  1  0.878503  0.878503  0.454507  1
  O  O33  1  0.882706  0.344420  0.629806  1
  O  O34  1  0.367722  0.906659  0.785929  1
  O  O35  1  0.395067  0.395067  0.939207  1
  O  O36  1  0.352651  0.871748  0.968093  1
  O  O37  1  0.906659  0.367722  0.785929  1
  O  O38  1  0.882800  0.882800  0.629891  1
  O  O39  1  0.884631  0.884631  0.782009  1
  O  O40  1  0.871748  0.352651  0.968093  1
  O  O41  1  0.870680  0.870680  0.968472  1
