# generated using pymatgen
data_Ho3TaO7
_symmetry_space_group_name_H-M   'P 1'
_cell_length_a   7.53222147
_cell_length_b   17.11764673
_cell_length_c   9.31016330
_cell_angle_alpha   26.91060222
_cell_angle_beta   35.78242902
_cell_angle_gamma   50.12233647
_symmetry_Int_Tables_number   1
_chemical_formula_structural   Ho3TaO7
_chemical_formula_sum   'Ho6 Ta2 O14'
_cell_volume   301.94047238
_cell_formula_units_Z   2
loop_
 _symmetry_equiv_pos_site_id
 _symmetry_equiv_pos_as_xyz
  1  'x, y, z'
loop_
 _atom_site_type_symbol
 _atom_site_label
 _atom_site_symmetry_multiplicity
 _atom_site_fract_x
 _atom_site_fract_y
 _atom_site_fract_z
 _atom_site_occupancy
  Ho  Ho0  1  -0.002746  -0.006276  0.011001  1
  Ho  Ho1  1  0.489466  -0.004883  0.016550  1
  Ho  Ho2  1  0.348669  0.230250  0.014783  1
  Ho  Ho3  1  0.794038  0.233179  0.064891  1
  Ho  Ho4  1  0.202465  0.756015  0.956037  1
  Ho  Ho5  1  0.631889  0.755904  0.026362  1
  Ta  Ta6  1  0.259816  0.493740  0.008550  1
  Ta  Ta7  1  0.747682  0.495017  0.023264  1
  O  O8  1  0.531281  -0.004450  0.226328  1
  O  O9  1  0.324137  0.166619  0.360613  1
  O  O10  1  0.463550  -0.002844  0.791942  1
  O  O11  1  0.354288  0.516778  0.174950  1
  O  O12  1  0.842797  0.286328  0.234330  1
  O  O13  1  0.038973  0.705405  0.398707  1
  O  O14  1  0.210538  0.171130  0.967717  1
  O  O15  1  0.665322  0.490396  0.285795  1
  O  O16  1  0.264015  0.515697  0.765222  1
  O  O17  1  0.841161  0.864041  -0.059493  1
  O  O18  1  0.951043  0.284615  0.630039  1
  O  O19  1  0.154245  0.707011  0.779838  1
  O  O20  1  0.688846  0.493595  0.750305  1
  O  O21  1  0.673834  0.855860  0.619921  1
