# generated using pymatgen
data_PH3O4
_symmetry_space_group_name_H-M   'P 1'
_cell_length_a   5.81129441
_cell_length_b   4.91044566
_cell_length_c   11.31021698
_cell_angle_alpha   90.00000000
_cell_angle_beta   94.70908977
_cell_angle_gamma   90.00000000
_symmetry_Int_Tables_number   1
_chemical_formula_structural   PH3O4
_chemical_formula_sum   'P4 H12 O16'
_cell_volume   321.65938641
_cell_formula_units_Z   4
loop_
 _symmetry_equiv_pos_site_id
 _symmetry_equiv_pos_as_xyz
  1  'x, y, z'
loop_
 _atom_site_type_symbol
 _atom_site_label
 _atom_site_symmetry_multiplicity
 _atom_site_fract_x
 _atom_site_fract_y
 _atom_site_fract_z
 _atom_site_occupancy
  P  P0  1  0.211527  0.204971  0.638750  1
  P  P1  1  0.792396  0.707268  0.859487  1
  P  P2  1  0.792396  0.792732  0.359487  1
  P  P3  1  0.211527  0.295029  0.138750  1
  H  H4  1  0.308459  0.545639  0.527327  1
  H  H5  1  0.804436  0.019897  0.000592  1
  H  H6  1  0.804436  0.480103  0.500592  1
  H  H7  1  0.308459  0.954361  0.027327  1
  H  H8  1  0.861236  0.051070  0.674224  1
  H  H9  1  0.138712  0.548097  0.825150  1
  H  H10  1  0.138712  0.951903  0.325150  1
  H  H11  1  0.861236  0.448930  0.174224  1
  H  H12  1  0.470300  0.881117  0.681958  1
  H  H13  1  0.532931  0.379820  0.820131  1
  H  H14  1  0.532931  0.120180  0.320131  1
  H  H15  1  0.470300  0.618883  0.181958  1
  O  O16  1  0.279880  0.348627  0.521782  1
  O  O17  1  0.717727  0.856325  0.974062  1
  O  O18  1  0.717727  0.643675  0.474062  1
  O  O19  1  0.279880  0.151373  0.021782  1
  O  O20  1  0.941417  0.183454  0.619813  1
  O  O21  1  0.061494  0.680543  0.879248  1
  O  O22  1  0.061494  0.819457  0.379248  1
  O  O23  1  0.941417  0.316546  0.119813  1
  O  O24  1  0.291005  0.357005  0.750690  1
  O  O25  1  0.715258  0.854885  0.745167  1
  O  O26  1  0.715258  0.645115  0.245167  1
  O  O27  1  0.291005  0.142995  0.250690  1
  O  O28  1  0.312058  0.909128  0.634564  1
  O  O29  1  0.687806  0.416715  0.867306  1
  O  O30  1  0.687806  0.083285  0.367306  1
  O  O31  1  0.312058  0.590872  0.134564  1
