# generated using pymatgen
data_HgAsS2
_symmetry_space_group_name_H-M   'P 1'
_cell_length_a   9.53726783
_cell_length_b   9.48101477
_cell_length_c   56.52802722
_cell_angle_alpha   109.06886656
_cell_angle_beta   109.30508238
_cell_angle_gamma   110.41211702
_symmetry_Int_Tables_number   1
_chemical_formula_structural   HgAsS2
_chemical_formula_sum   'Hg36 As36 S72'
_cell_volume   3916.13324977
_cell_formula_units_Z   36
loop_
 _symmetry_equiv_pos_site_id
 _symmetry_equiv_pos_as_xyz
  1  'x, y, z'
loop_
 _atom_site_type_symbol
 _atom_site_label
 _atom_site_symmetry_multiplicity
 _atom_site_fract_x
 _atom_site_fract_y
 _atom_site_fract_z
 _atom_site_occupancy
  Hg  Hg0  1  0.239455  0.743059  0.915943  1
  Hg  Hg1  1  0.251151  0.495205  0.957974  1
  Hg  Hg2  1  0.495046  0.749155  0.875905  1
  Hg  Hg3  1  0.494431  0.252119  0.958262  1
  Hg  Hg4  1  0.240121  0.494488  0.790734  1
  Hg  Hg5  1  0.239821  0.743804  0.749272  1
  Hg  Hg6  1  0.741405  0.242168  0.916855  1
  Hg  Hg7  1  0.495730  0.750188  0.709308  1
  Hg  Hg8  1  0.239982  0.743896  0.582629  1
  Hg  Hg9  1  0.495005  0.255227  0.791772  1
  Hg  Hg10  1  0.239963  0.494386  0.624040  1
  Hg  Hg11  1  0.744981  0.504697  0.874981  1
  Hg  Hg12  1  0.744487  0.504564  0.708229  1
  Hg  Hg13  1  0.495697  0.750156  0.542632  1
  Hg  Hg14  1  0.744165  0.248096  0.750715  1
  Hg  Hg15  1  0.239945  0.494363  0.457366  1
  Hg  Hg16  1  0.239971  0.743883  0.415960  1
  Hg  Hg17  1  0.495030  0.255175  0.625100  1
  Hg  Hg18  1  0.744119  0.248059  0.584039  1
  Hg  Hg19  1  0.239730  0.493754  0.290784  1
  Hg  Hg20  1  0.495693  0.750116  0.375949  1
  Hg  Hg21  1  0.495029  0.255144  0.458433  1
  Hg  Hg22  1  0.744482  0.504582  0.541560  1
  Hg  Hg23  1  0.240338  0.741074  0.249813  1
  Hg  Hg24  1  0.250895  0.494670  0.124709  1
  Hg  Hg25  1  0.240034  0.740307  0.083152  1
  Hg  Hg26  1  0.494958  0.254807  0.291687  1
  Hg  Hg27  1  0.503268  0.747265  0.208675  1
  Hg  Hg28  1  0.744110  0.248121  0.417401  1
  Hg  Hg29  1  0.744415  0.504590  0.374887  1
  Hg  Hg30  1  0.502627  0.746335  0.041949  1
  Hg  Hg31  1  0.744790  0.502511  0.208388  1
  Hg  Hg32  1  0.743691  0.247301  0.250707  1
  Hg  Hg33  1  0.494444  0.251592  0.124828  1
  Hg  Hg34  1  0.741097  0.241448  0.083511  1
  Hg  Hg35  1  0.745340  0.502659  0.041825  1
  As  As36  1  0.886473  0.001774  0.833190  1
  As  As37  1  -0.002007  -0.000992  0.915750  1
  As  As38  1  -0.004149  0.492908  0.833334  1
  As  As39  1  0.478951  -0.001606  0.833261  1
  As  As40  1  0.504669  0.506207  0.917599  1
  As  As41  1  -0.004253  0.492967  0.666663  1
  As  As42  1  -0.002709  0.000155  0.748905  1
  As  As43  1  0.886899  0.002486  0.666651  1
  As  As44  1  0.886917  0.002492  0.499993  1
  As  As45  1  0.503970  0.506763  0.751112  1
  As  As46  1  -0.002672  0.000193  0.582243  1
  As  As47  1  -0.004228  0.492985  0.500004  1
  As  As48  1  0.110655  -0.000024  0.833367  1
  As  As49  1  0.479114  -0.001278  0.666674  1
  As  As50  1  0.479121  -0.001276  0.500006  1
  As  As51  1  -0.004199  0.492838  0.333331  1
  As  As52  1  0.503942  0.506737  0.584436  1
  As  As53  1  -0.002696  0.000161  0.415568  1
  As  As54  1  0.887350  0.002535  0.333455  1
  As  As55  1  0.031626  0.901511  0.166684  1
  As  As56  1  0.503957  0.506746  0.417780  1
  As  As57  1  -0.000975  0.000573  0.249065  1
  As  As58  1  -0.002120  0.483707  0.166669  1
  As  As59  1  0.110514  -0.000213  0.666659  1
  As  As60  1  0.110477  -0.000265  0.499983  1
  As  As61  1  0.031605  0.901114  0.000021  1
  As  As62  1  0.479455  -0.001146  0.333425  1
  As  As63  1  0.503531  0.504471  0.250924  1
  As  As64  1  -0.000284  -0.000588  0.082565  1
  As  As65  1  -0.002021  0.483682  0.000015  1
  As  As66  1  0.483466  -0.002789  0.166734  1
  As  As67  1  0.504231  0.503949  0.084074  1
  As  As68  1  0.110594  -0.000244  0.333297  1
  As  As69  1  0.483006  -0.003255  -0.000091  1
  As  As70  1  0.905727  0.048995  0.166775  1
  As  As71  1  0.904503  0.048166  -0.000090  1
  S  S72  1  0.000782  0.533388  0.962654  1
  S  S73  1  0.219666  0.219757  0.961682  1
  S  S74  1  0.219352  0.768001  0.870434  1
  S  S75  1  -0.004573  0.778265  0.757790  1
  S  S76  1  -0.003010  0.545819  0.796300  1
  S  S77  1  0.230796  0.450291  0.908478  1
  S  S78  1  -0.004539  0.778298  0.591123  1
  S  S79  1  0.448764  0.230526  0.908823  1
  S  S80  1  0.218079  0.222280  0.794804  1
  S  S81  1  0.449173  0.452079  0.871624  1
  S  S82  1  -0.003137  0.545781  0.629614  1
  S  S83  1  0.219120  0.768082  0.703709  1
  S  S84  1  0.778837  -0.003618  0.925139  1
  S  S85  1  0.229059  0.450150  0.741715  1
  S  S86  1  0.531462  0.998652  0.962611  1
  S  S87  1  0.530023  0.776747  0.833386  1
  S  S88  1  -0.003702  0.777020  0.924519  1
  S  S89  1  0.448760  0.231577  0.742215  1
  S  S90  1  0.218088  0.222329  0.628140  1
  S  S91  1  0.449298  0.453495  0.705196  1
  S  S92  1  0.219155  0.768099  0.537053  1
  S  S93  1  -0.004531  0.778271  0.424457  1
  S  S94  1  -0.003083  0.545833  0.462960  1
  S  S95  1  0.228969  0.450115  0.575025  1
  S  S96  1  0.779396  0.549989  0.833368  1
  S  S97  1  0.778805  -0.000041  0.758316  1
  S  S98  1  0.752867  0.224197  0.870538  1
  S  S99  1  0.529928  0.776877  0.666674  1
  S  S100  1  0.529416  0.001119  0.795995  1
  S  S101  1  0.448737  0.231601  0.575549  1
  S  S102  1  0.218066  0.222307  0.461469  1
  S  S103  1  0.449291  0.453481  0.538524  1
  S  S104  1  -0.003269  0.545294  0.296227  1
  S  S105  1  0.219152  0.768017  0.370368  1
  S  S106  1  -0.004219  0.777525  0.257835  1
  S  S107  1  0.778780  -0.000079  0.591642  1
  S  S108  1  0.228991  0.450126  0.408356  1
  S  S109  1  0.779218  0.550139  0.666661  1
  S  S110  1  0.753241  0.225018  0.703963  1
  S  S111  1  0.529475  0.001311  0.629383  1
  S  S112  1  0.529915  0.776864  0.500002  1
  S  S113  1  0.449316  0.453446  0.371865  1
  S  S114  1  0.219289  0.222231  0.295043  1
  S  S115  1  0.448721  0.231577  0.408883  1
  S  S116  1  -0.003285  0.776290  0.091232  1
  S  S117  1  0.224947  0.757502  0.204002  1
  S  S118  1  0.000670  0.533058  0.129257  1
  S  S119  1  0.228003  0.445614  0.241546  1
  S  S120  1  0.778747  -0.000159  0.424960  1
  S  S121  1  0.779211  0.550125  0.499991  1
  S  S122  1  0.753240  0.225024  0.537293  1
  S  S123  1  0.529470  0.001289  0.462712  1
  S  S124  1  0.529770  0.776456  0.333302  1
  S  S125  1  0.529590  0.000999  0.296141  1
  S  S126  1  0.449579  0.449658  0.204988  1
  S  S127  1  0.220919  0.219741  0.128554  1
  S  S128  1  0.449236  0.229953  0.242163  1
  S  S129  1  0.225114  0.757374  0.037415  1
  S  S130  1  0.229702  0.445740  0.074974  1
  S  S131  1  0.779162  0.549756  0.333287  1
  S  S132  1  0.753567  0.225183  0.370688  1
  S  S133  1  0.541758  0.780405  0.166635  1
  S  S134  1  0.449302  0.228929  0.075426  1
  S  S135  1  0.449412  0.448209  0.038078  1
  S  S136  1  0.782975  0.543793  0.166622  1
  S  S137  1  0.779830  -0.000676  0.258184  1
  S  S138  1  0.755645  0.222949  0.204049  1
  S  S139  1  0.531663  0.998591  0.129421  1
  S  S140  1  0.541933  0.780622  0.000024  1
  S  S141  1  0.779822  -0.004136  0.091668  1
  S  S142  1  0.783184  0.544023  0.000033  1
  S  S143  1  0.755032  0.222043  0.037236  1
