# generated using pymatgen
data_Sr21In8Pb7
_symmetry_space_group_name_H-M   'P 1'
_cell_length_a   12.51510237
_cell_length_b   12.51507670
_cell_length_c   12.51511974
_cell_angle_alpha   59.99977790
_cell_angle_beta   59.99984017
_cell_angle_gamma   59.99993870
_symmetry_Int_Tables_number   1
_chemical_formula_structural   Sr21In8Pb7
_chemical_formula_sum   'Sr21 In8 Pb7'
_cell_volume   1386.07419547
_cell_formula_units_Z   1
loop_
 _symmetry_equiv_pos_site_id
 _symmetry_equiv_pos_as_xyz
  1  'x, y, z'
loop_
 _atom_site_type_symbol
 _atom_site_label
 _atom_site_symmetry_multiplicity
 _atom_site_fract_x
 _atom_site_fract_y
 _atom_site_fract_z
 _atom_site_occupancy
  Sr  Sr0  1  0.383052  0.872315  0.872317  1
  Sr  Sr1  1  0.500000  0.182170  0.500000  1
  Sr  Sr2  1  0.182171  0.500000  0.500000  1
  Sr  Sr3  1  0.872316  0.383052  0.872317  1
  Sr  Sr4  1  0.127684  0.616948  0.127683  1
  Sr  Sr5  1  0.500000  0.817830  0.182170  1
  Sr  Sr6  1  0.616948  0.127684  0.127684  1
  Sr  Sr7  1  0.817829  0.500000  0.500001  1
  Sr  Sr8  1  0.182171  0.500000  0.817829  1
  Sr  Sr9  1  0.817829  0.182171  0.500000  1
  Sr  Sr10  1  0.500000  0.499999  0.182171  1
  Sr  Sr11  1  0.127684  0.127684  0.616949  1
  Sr  Sr12  1  0.127684  0.127684  0.127683  1
  Sr  Sr13  1  0.182170  0.817829  0.500001  1
  Sr  Sr14  1  0.500000  0.817830  0.499999  1
  Sr  Sr15  1  0.000000  0.000001  0.999999  1
  Sr  Sr16  1  0.872316  0.872317  0.872316  1
  Sr  Sr17  1  0.500000  0.500000  0.817829  1
  Sr  Sr18  1  0.817828  0.500001  0.182171  1
  Sr  Sr19  1  0.872317  0.872317  0.383050  1
  Sr  Sr20  1  0.500000  0.182171  0.817830  1
  In  In21  1  0.689064  0.689064  0.689064  1
  In  In22  1  0.689064  0.932809  0.689063  1
  In  In23  1  0.310937  0.310937  0.067190  1
  In  In24  1  0.689063  0.689063  0.932810  1
  In  In25  1  0.310936  0.067191  0.310937  1
  In  In26  1  0.067191  0.310936  0.310937  1
  In  In27  1  0.932809  0.689063  0.689063  1
  In  In28  1  0.310936  0.310936  0.310937  1
  Pb  Pb29  1  0.787340  0.212660  0.212659  1
  Pb  Pb30  1  0.787341  0.212660  0.787340  1
  Pb  Pb31  1  0.212660  0.787340  0.212660  1
  Pb  Pb32  1  0.212660  0.212660  0.787340  1
  Pb  Pb33  1  0.212660  0.787340  0.787341  1
  Pb  Pb34  1  0.787340  0.787340  0.212660  1
  Pb  Pb35  1  0.500000  0.500000  0.500000  1
