# generated using pymatgen
data_Sm4Ag2Se7
_symmetry_space_group_name_H-M   'P 1'
_cell_length_a   7.40960584
_cell_length_b   7.78967361
_cell_length_c   15.25400068
_cell_angle_alpha   110.72000071
_cell_angle_beta   108.71369251
_cell_angle_gamma   108.84023684
_symmetry_Int_Tables_number   1
_chemical_formula_structural   Sm4Ag2Se7
_chemical_formula_sum   'Sm8 Ag4 Se14'
_cell_volume   678.72977380
_cell_formula_units_Z   2
loop_
 _symmetry_equiv_pos_site_id
 _symmetry_equiv_pos_as_xyz
  1  'x, y, z'
loop_
 _atom_site_type_symbol
 _atom_site_label
 _atom_site_symmetry_multiplicity
 _atom_site_fract_x
 _atom_site_fract_y
 _atom_site_fract_z
 _atom_site_occupancy
  Sm  Sm0  1  0.139321  0.757585  0.965582  1
  Sm  Sm1  1  0.236695  0.643312  0.694798  1
  Sm  Sm2  1  0.347099  0.253716  0.805202  1
  Sm  Sm3  1  0.708158  0.826422  0.534418  1
  Sm  Sm4  1  0.585503  0.349030  0.607076  1
  Sm  Sm5  1  0.871352  0.134879  0.892924  1
  Sm  Sm6  1  0.597137  0.363913  0.117976  1
  Sm  Sm7  1  0.861186  0.127961  0.382024  1
  Ag  Ag8  1  0.134062  0.720240  0.430717  1
  Ag  Ag9  1  0.314828  0.659594  0.198818  1
  Ag  Ag10  1  0.417192  0.261958  0.301182  1
  Ag  Ag11  1  0.772628  0.858806  0.069283  1
  Se  Se12  1  0.964715  0.863924  0.738161  1
  Se  Se13  1  0.988392  0.387602  0.761839  1
  Se  Se14  1  0.472554  0.008796  0.917701  1
  Se  Se15  1  0.137153  0.173395  0.582299  1
  Se  Se16  1  0.303823  0.442742  0.449780  1
  Se  Se17  1  0.638408  0.637171  0.819020  1
  Se  Se18  1  0.458776  0.963833  0.409817  1
  Se  Se19  1  0.139142  0.144199  0.090183  1
  Se  Se20  1  0.500369  0.999131  0.680980  1
  Se  Se21  1  0.337976  0.487755  0.998106  1
  Se  Se22  1  0.739750  0.691653  0.325998  1
  Se  Se23  1  0.841764  0.491543  0.501894  1
  Se  Se24  1  0.587754  0.039657  0.174002  1
  Se  Se25  1  0.904263  0.543182  0.050220  1
