# generated using pymatgen
data_Zr6Co16Si7
_symmetry_space_group_name_H-M   'P 1'
_cell_length_a   8.08203824
_cell_length_b   8.08203072
_cell_length_c   8.08154629
_cell_angle_alpha   60.01094131
_cell_angle_beta   60.01086823
_cell_angle_gamma   60.00570092
_symmetry_Int_Tables_number   1
_chemical_formula_structural   Zr6Co16Si7
_chemical_formula_sum   'Zr6 Co16 Si7'
_cell_volume   373.34568992
_cell_formula_units_Z   1
loop_
 _symmetry_equiv_pos_site_id
 _symmetry_equiv_pos_as_xyz
  1  'x, y, z'
loop_
 _atom_site_type_symbol
 _atom_site_label
 _atom_site_symmetry_multiplicity
 _atom_site_fract_x
 _atom_site_fract_y
 _atom_site_fract_z
 _atom_site_occupancy
  Zr  Zr0  1  0.793094  0.793107  0.206913  1
  Zr  Zr1  1  0.793059  0.206915  0.793135  1
  Zr  Zr2  1  0.206918  0.206904  0.793106  1
  Zr  Zr3  1  0.206904  0.793083  0.206896  1
  Zr  Zr4  1  0.206916  0.793073  0.793136  1
  Zr  Zr5  1  0.793068  0.206907  0.206912  1
  Co  Co6  1  0.620083  0.139795  0.620082  1
  Co  Co7  1  0.481102  0.173008  0.172925  1
  Co  Co8  1  0.380264  0.380278  0.859181  1
  Co  Co9  1  0.828001  0.827991  0.515984  1
  Co  Co10  1  0.172974  0.172985  0.481053  1
  Co  Co11  1  0.828215  0.515555  0.828118  1
  Co  Co12  1  0.173022  0.481041  0.172959  1
  Co  Co13  1  0.620059  0.620064  0.139758  1
  Co  Co14  1  0.172978  0.172990  0.172961  1
  Co  Co15  1  0.380282  0.859263  0.380202  1
  Co  Co16  1  0.620066  0.620050  0.620139  1
  Co  Co17  1  0.859232  0.380302  0.380210  1
  Co  Co18  1  0.380259  0.380269  0.380231  1
  Co  Co19  1  0.828082  0.828047  0.828087  1
  Co  Co20  1  0.139814  0.620077  0.620062  1
  Co  Co21  1  0.515513  0.828213  0.828128  1
  Si  Si22  1  0.999908  0.500075  0.500088  1
  Si  Si23  1  0.500088  0.999910  0.500100  1
  Si  Si24  1  0.500004  0.499998  0.500006  1
  Si  Si25  1  0.999920  0.500081  0.999893  1
  Si  Si26  1  0.500101  0.999910  0.999855  1
  Si  Si27  1  0.500166  0.500166  0.999813  1
  Si  Si28  1  0.999907  0.999946  0.500067  1
