# generated using pymatgen
data_Ti3CuS6
_symmetry_space_group_name_H-M   'P 1'
_cell_length_a   7.06028127
_cell_length_b   7.06025899
_cell_length_c   63.48630281
_cell_angle_alpha   59.95727896
_cell_angle_beta   59.95750620
_cell_angle_gamma   59.99813822
_symmetry_Int_Tables_number   1
_chemical_formula_structural   Ti3CuS6
_chemical_formula_sum   'Ti36 Cu12 S72'
_cell_volume   2236.25631352
_cell_formula_units_Z   12
loop_
 _symmetry_equiv_pos_site_id
 _symmetry_equiv_pos_as_xyz
  1  'x, y, z'
loop_
 _atom_site_type_symbol
 _atom_site_label
 _atom_site_symmetry_multiplicity
 _atom_site_fract_x
 _atom_site_fract_y
 _atom_site_fract_z
 _atom_site_occupancy
  Ti  Ti0  1  0.002187  0.497090  0.055956  1
  Ti  Ti1  1  0.497091  0.002186  0.055956  1
  Ti  Ti2  1  0.495837  0.495835  0.001391  1
  Ti  Ti3  1  0.007455  0.499601  0.165933  1
  Ti  Ti4  1  0.497090  0.497089  0.055956  1
  Ti  Ti5  1  0.499600  0.007454  0.165933  1
  Ti  Ti6  1  0.500740  0.500738  0.110862  1
  Ti  Ti7  1  0.009383  0.496911  0.277425  1
  Ti  Ti8  1  0.499610  0.499612  0.165929  1
  Ti  Ti9  1  0.496912  0.009381  0.277425  1
  Ti  Ti10  1  0.497108  0.497112  0.223180  1
  Ti  Ti11  1  0.006288  0.499690  0.388258  1
  Ti  Ti12  1  0.496855  0.496855  0.277424  1
  Ti  Ti13  1  0.499690  0.006287  0.388258  1
  Ti  Ti14  1  0.496855  0.496853  0.334383  1
  Ti  Ti15  1  0.999892  0.500112  0.499987  1
  Ti  Ti16  1  0.499693  0.499694  0.388259  1
  Ti  Ti17  1  0.500112  0.999892  0.499986  1
  Ti  Ti18  1  0.500003  0.500002  0.444454  1
  Ti  Ti19  1  0.000017  0.499978  0.611115  1
  Ti  Ti20  1  0.500137  0.500137  0.499991  1
  Ti  Ti21  1  0.499979  0.000016  0.611114  1
  Ti  Ti22  1  0.499946  0.499946  0.555570  1
  Ti  Ti23  1  -0.000089  0.500007  0.722230  1
  Ti  Ti24  1  0.499971  0.499971  0.611113  1
  Ti  Ti25  1  0.500006  -0.000088  0.722230  1
  Ti  Ti26  1  0.500050  0.500049  0.666648  1
  Ti  Ti27  1  0.002946  0.497351  0.833598  1
  Ti  Ti28  1  0.500006  0.500007  0.722226  1
  Ti  Ti29  1  0.497350  0.002947  0.833598  1
  Ti  Ti30  1  0.500041  0.500040  0.777757  1
  Ti  Ti31  1  0.009571  0.496789  0.944095  1
  Ti  Ti32  1  0.497309  0.497308  0.833600  1
  Ti  Ti33  1  0.496790  0.009571  0.944095  1
  Ti  Ti34  1  0.496725  0.496725  0.889984  1
  Ti  Ti35  1  0.496765  0.496765  0.944101  1
  Cu  Cu36  1  0.125044  0.125046  0.458321  1
  Cu  Cu37  1  0.875052  0.875051  0.208305  1
  Cu  Cu38  1  0.124948  0.124948  0.569464  1
  Cu  Cu39  1  0.875094  0.875087  0.319411  1
  Cu  Cu40  1  0.124969  0.124973  0.680571  1
  Cu  Cu41  1  0.875181  0.875178  0.430488  1
  Cu  Cu42  1  0.124973  0.124973  0.791685  1
  Cu  Cu43  1  0.875007  0.874999  0.541662  1
  Cu  Cu44  1  0.875011  0.875010  0.652773  1
  Cu  Cu45  1  0.875003  0.874997  0.763879  1
  Cu  Cu46  1  0.874861  0.874861  0.875028  1
  Cu  Cu47  1  0.874869  0.874870  0.986150  1
  S  S48  1  0.255111  0.255112  0.028187  1
  S  S49  1  0.254649  0.254648  0.081799  1
  S  S50  1  0.255059  0.736119  0.028194  1
  S  S51  1  0.736122  0.255056  0.028193  1
  S  S52  1  0.254094  0.254087  0.139514  1
  S  S53  1  0.264626  0.745571  0.082699  1
  S  S54  1  0.254622  0.254614  0.192912  1
  S  S55  1  0.745572  0.264627  0.082699  1
  S  S56  1  0.254035  0.736185  0.139526  1
  S  S57  1  0.745171  0.745169  0.029383  1
  S  S58  1  0.745485  0.745486  0.082710  1
  S  S59  1  0.736183  0.254029  0.139526  1
  S  S60  1  0.254462  0.254474  0.250503  1
  S  S61  1  0.265035  0.744567  0.193986  1
  S  S62  1  0.254398  0.254401  0.304105  1
  S  S63  1  0.744561  0.265038  0.193986  1
  S  S64  1  0.254439  0.736527  0.250513  1
  S  S65  1  0.744650  0.744658  0.140652  1
  S  S66  1  0.744519  0.744524  0.193990  1
  S  S67  1  0.736525  0.254443  0.250513  1
  S  S68  1  0.254211  0.254210  0.361692  1
  S  S69  1  0.265329  0.744824  0.305006  1
  S  S70  1  0.254628  0.254627  0.415134  1
  S  S71  1  0.744827  0.265325  0.305006  1
  S  S72  1  0.254224  0.736356  0.361700  1
  S  S73  1  0.744749  0.744746  0.251744  1
  S  S74  1  0.744773  0.744769  0.305013  1
  S  S75  1  0.736353  0.254221  0.361701  1
  S  S76  1  0.264968  0.744615  0.416193  1
  S  S77  1  0.254792  0.254793  0.472748  1
  S  S78  1  0.744612  0.264970  0.416193  1
  S  S79  1  0.254775  0.254772  0.526183  1
  S  S80  1  0.744957  0.744963  0.362778  1
  S  S81  1  0.254805  0.735700  0.472751  1
  S  S82  1  0.744634  0.744638  0.416197  1
  S  S83  1  0.735699  0.254804  0.472751  1
  S  S84  1  0.254713  0.254713  0.583874  1
  S  S85  1  0.264338  0.745215  0.527245  1
  S  S86  1  0.254702  0.735689  0.583877  1
  S  S87  1  0.745211  0.264337  0.527245  1
  S  S88  1  0.254722  0.254725  0.637310  1
  S  S89  1  0.745193  0.745192  0.473820  1
  S  S90  1  0.745263  0.745266  0.527236  1
  S  S91  1  0.735688  0.254702  0.583877  1
  S  S92  1  0.264215  0.745281  0.638360  1
  S  S93  1  0.254691  0.254693  0.694979  1
  S  S94  1  0.745278  0.264218  0.638360  1
  S  S95  1  0.254784  0.254785  0.748407  1
  S  S96  1  0.254728  0.735794  0.694971  1
  S  S97  1  0.745203  0.745205  0.584930  1
  S  S98  1  0.745298  0.745297  0.638358  1
  S  S99  1  0.735795  0.254727  0.694971  1
  S  S100  1  0.264202  0.745263  0.749472  1
  S  S101  1  0.254982  0.254980  0.806009  1
  S  S102  1  0.254730  0.254728  0.859543  1
  S  S103  1  0.745261  0.264205  0.749472  1
  S  S104  1  0.255015  0.735948  0.806007  1
  S  S105  1  0.745269  0.745270  0.696029  1
  S  S106  1  0.745267  0.745264  0.749472  1
  S  S107  1  0.735948  0.255014  0.806007  1
  S  S108  1  0.264998  0.745479  0.860450  1
  S  S109  1  0.254577  0.254577  0.917141  1
  S  S110  1  0.745483  0.264994  0.860450  1
  S  S111  1  0.254565  0.254566  0.970717  1
  S  S112  1  0.745027  0.745028  0.807212  1
  S  S113  1  0.254563  0.736580  0.917146  1
  S  S114  1  0.745454  0.745452  0.860454  1
  S  S115  1  0.736581  0.254562  0.917146  1
  S  S116  1  0.265732  0.745081  0.971570  1
  S  S117  1  0.745080  0.265733  0.971570  1
  S  S118  1  0.744867  0.744867  0.918369  1
  S  S119  1  0.744992  0.744992  0.971585  1
