# generated using pymatgen
data_MoH4O5
_symmetry_space_group_name_H-M   'P 1'
_cell_length_a   7.85345659
_cell_length_b   6.17275528
_cell_length_c   4.24810601
_cell_angle_alpha   89.99383335
_cell_angle_beta   89.99728942
_cell_angle_gamma   79.34698239
_symmetry_Int_Tables_number   1
_chemical_formula_structural   MoH4O5
_chemical_formula_sum   'Mo2 H8 O10'
_cell_volume   202.38802105
_cell_formula_units_Z   2
loop_
 _symmetry_equiv_pos_site_id
 _symmetry_equiv_pos_as_xyz
  1  'x, y, z'
loop_
 _atom_site_type_symbol
 _atom_site_label
 _atom_site_symmetry_multiplicity
 _atom_site_fract_x
 _atom_site_fract_y
 _atom_site_fract_z
 _atom_site_occupancy
  Mo  Mo0  1  0.725765  0.994725  0.914060  1
  Mo  Mo1  1  0.225641  0.994823  0.085614  1
  H  H2  1  0.117223  0.433209  0.563912  1
  H  H3  1  0.897350  0.625735  0.770732  1
  H  H4  1  0.995091  0.555201  0.290114  1
  H  H5  1  0.617049  0.433634  0.435906  1
  H  H6  1  0.397211  0.625686  0.229550  1
  H  H7  1  0.494933  0.554931  0.710234  1
  H  H8  1  0.775517  0.425696  0.994204  1
  H  H9  1  0.275167  0.426137  0.005524  1
  O  O10  1  0.004259  0.987181  0.007484  1
  O  O11  1  0.504128  0.987135  0.992195  1
  O  O12  1  0.999238  0.500587  0.506888  1
  O  O13  1  0.499235  0.500421  0.492800  1
  O  O14  1  0.739989  0.994277  0.506089  1
  O  O15  1  0.239956  0.994514  0.493708  1
  O  O16  1  0.714865  0.297203  0.014594  1
  O  O17  1  0.818491  0.679336  0.960700  1
  O  O18  1  0.318404  0.679301  0.039513  1
  O  O19  1  0.214953  0.297289  0.984980  1
