# generated using pymatgen
data_K7(Si2Te5)4
_symmetry_space_group_name_H-M   'P 1'
_cell_length_a   17.73888859
_cell_length_b   10.84245122
_cell_length_c   15.23171649
_cell_angle_alpha   90.00000000
_cell_angle_beta   90.00000000
_cell_angle_gamma   106.64117665
_symmetry_Int_Tables_number   1
_chemical_formula_structural   K7(Si2Te5)4
_chemical_formula_sum   'K14 Si16 Te40'
_cell_volume   2806.86342751
_cell_formula_units_Z   2
loop_
 _symmetry_equiv_pos_site_id
 _symmetry_equiv_pos_as_xyz
  1  'x, y, z'
loop_
 _atom_site_type_symbol
 _atom_site_label
 _atom_site_symmetry_multiplicity
 _atom_site_fract_x
 _atom_site_fract_y
 _atom_site_fract_z
 _atom_site_occupancy
  K  K0  1  0.167757  -0.031169  0.340162  1
  K  K1  1  0.103045  0.557542  0.408978  1
  K  K2  1  0.063652  0.772374  0.976399  1
  K  K3  1  0.324181  0.627275  0.722627  1
  K  K4  1  0.343485  -0.015904  0.858165  1
  K  K5  1  0.375003  0.392625  0.907513  1
  K  K6  1  0.494551  0.814399  0.465880  1
  K  K7  1  0.667757  0.468831  0.159838  1
  K  K8  1  0.603045  0.057542  0.091022  1
  K  K9  1  0.563652  0.272374  0.523601  1
  K  K10  1  0.824181  0.127275  0.777373  1
  K  K11  1  0.843485  0.484096  0.641835  1
  K  K12  1  0.875003  0.892625  0.592487  1
  K  K13  1  0.994551  0.314399  0.034120  1
  Si  Si14  1  0.352615  0.658217  0.257644  1
  Si  Si15  1  0.393088  0.240270  0.193940  1
  Si  Si16  1  0.392710  0.371666  0.322127  1
  Si  Si17  1  0.414827  0.079706  0.290673  1
  Si  Si18  1  0.081085  0.072562  0.767925  1
  Si  Si19  1  0.072711  0.417278  0.767814  1
  Si  Si20  1  0.028601  0.219032  0.689482  1
  Si  Si21  1  0.224897  0.831371  0.652013  1
  Si  Si22  1  0.852615  0.158217  0.242356  1
  Si  Si23  1  0.893088  0.740270  0.306060  1
  Si  Si24  1  0.914827  0.579706  0.209327  1
  Si  Si25  1  0.892710  0.871666  0.177873  1
  Si  Si26  1  0.581085  0.572562  0.732075  1
  Si  Si27  1  0.572711  0.917278  0.732186  1
  Si  Si28  1  0.528601  0.719032  0.810518  1
  Si  Si29  1  0.724897  0.331371  0.847987  1
  Te  Te30  1  0.035054  0.030432  0.164908  1
  Te  Te31  1  0.055589  0.594372  0.186174  1
  Te  Te32  1  0.268761  0.345733  0.584389  1
  Te  Te33  1  0.108407  0.255947  0.545617  1
  Te  Te34  1  0.860714  0.673065  0.072917  1
  Te  Te35  1  0.813647  0.017619  0.103389  1
  Te  Te36  1  0.002988  0.231195  0.261655  1
  Te  Te37  1  0.105824  0.940139  0.629540  1
  Te  Te38  1  0.119809  0.589906  0.641991  1
  Te  Te39  1  0.270579  0.818071  0.494302  1
  Te  Te40  1  0.236441  0.692064  0.932955  1
  Te  Te41  1  0.353271  0.508420  0.128103  1
  Te  Te42  1  0.325406  0.872530  0.214194  1
  Te  Te43  1  0.513719  0.220234  0.765950  1
  Te  Te44  1  0.681411  0.931851  0.612465  1
  Te  Te45  1  0.678258  0.607220  0.609286  1
  Te  Te46  1  0.486090  0.286645  0.067936  1
  Te  Te47  1  0.256001  0.246394  0.139282  1
  Te  Te48  1  0.453438  -0.036547  0.659884  1
  Te  Te49  1  0.449586  0.417465  0.675232  1
  Te  Te50  1  0.535054  0.530432  0.335092  1
  Te  Te51  1  0.555589  0.094372  0.313826  1
  Te  Te52  1  0.768761  0.845733  0.915611  1
  Te  Te53  1  0.608407  0.755947  0.954383  1
  Te  Te54  1  0.313647  0.517619  0.396611  1
  Te  Te55  1  0.360714  0.173065  0.427083  1
  Te  Te56  1  0.502988  0.731195  0.238345  1
  Te  Te57  1  0.619809  0.089906  0.858009  1
  Te  Te58  1  0.605824  0.440139  0.870460  1
  Te  Te59  1  0.770579  0.318071  0.005698  1
  Te  Te60  1  0.736441  0.192064  0.567045  1
  Te  Te61  1  0.825406  0.372530  0.285806  1
  Te  Te62  1  0.853271  0.008420  0.371897  1
  Te  Te63  1  0.013719  0.720234  0.734050  1
  Te  Te64  1  0.181411  0.431851  0.887535  1
  Te  Te65  1  0.178258  0.107220  0.890714  1
  Te  Te66  1  0.986090  0.786645  0.432064  1
  Te  Te67  1  0.756001  0.746394  0.360718  1
  Te  Te68  1  0.953438  0.463453  0.840116  1
  Te  Te69  1  0.949586  0.917465  0.824768  1
