# generated using pymatgen
data_Nd4Ag2Se7
_symmetry_space_group_name_H-M   'P 1'
_cell_length_a   7.51813031
_cell_length_b   7.85592794
_cell_length_c   15.28255415
_cell_angle_alpha   110.78102667
_cell_angle_beta   108.99820942
_cell_angle_gamma   108.88764013
_symmetry_Int_Tables_number   1
_chemical_formula_structural   Nd4Ag2Se7
_chemical_formula_sum   'Nd8 Ag4 Se14'
_cell_volume   692.47525400
_cell_formula_units_Z   2
loop_
 _symmetry_equiv_pos_site_id
 _symmetry_equiv_pos_as_xyz
  1  'x, y, z'
loop_
 _atom_site_type_symbol
 _atom_site_label
 _atom_site_symmetry_multiplicity
 _atom_site_fract_x
 _atom_site_fract_y
 _atom_site_fract_z
 _atom_site_occupancy
  Nd  Nd0  1  0.131830  0.752945  0.956021  1
  Nd  Nd1  1  0.244861  0.636763  0.689429  1
  Nd  Nd2  1  0.366003  0.257905  0.810571  1
  Nd  Nd3  1  0.719788  0.840902  0.543979  1
  Nd  Nd4  1  0.587295  0.341521  0.602298  1
  Nd  Nd5  1  0.882699  0.136925  0.897702  1
  Nd  Nd6  1  0.603156  0.368784  0.120842  1
  Nd  Nd7  1  0.861472  0.127100  0.379158  1
  Ag  Ag8  1  0.125288  0.749074  0.434726  1
  Ag  Ag9  1  0.290494  0.642359  0.194121  1
  Ag  Ag10  1  0.402253  0.254117  0.305879  1
  Ag  Ag11  1  0.755836  0.879622  0.065274  1
  Se  Se12  1  0.992520  0.371951  0.755217  1
  Se  Se13  1  0.481899  0.002746  0.919487  1
  Se  Se14  1  0.142926  0.163772  0.580513  1
  Se  Se15  1  0.309925  0.455360  0.459381  1
  Se  Se16  1  0.646192  0.636264  0.817817  1
  Se  Se17  1  0.449560  0.954086  0.404390  1
  Se  Se18  1  0.140780  0.145307  0.095610  1
  Se  Se19  1  0.510558  0.000629  0.682183  1
  Se  Se20  1  0.571205  0.038113  0.173889  1
  Se  Se21  1  0.344436  0.494697  0.001045  1
  Se  Se22  1  0.723427  0.690335  0.326111  1
  Se  Se23  1  0.982085  0.861516  0.744783  1
  Se  Se24  1  0.842345  0.492607  0.498955  1
  Se  Se25  1  0.891164  0.536599  0.040619  1
