# generated using pymatgen
data_NaYF4
_symmetry_space_group_name_H-M   'P 1'
_cell_length_a   6.05094325
_cell_length_b   12.08105728
_cell_length_c   7.18817385
_cell_angle_alpha   90.00000000
_cell_angle_beta   90.00000000
_cell_angle_gamma   120.08160795
_symmetry_Int_Tables_number   1
_chemical_formula_structural   NaYF4
_chemical_formula_sum   'Na6 Y6 F24'
_cell_volume   454.69429286
_cell_formula_units_Z   6
loop_
 _symmetry_equiv_pos_site_id
 _symmetry_equiv_pos_as_xyz
  1  'x, y, z'
loop_
 _atom_site_type_symbol
 _atom_site_label
 _atom_site_symmetry_multiplicity
 _atom_site_fract_x
 _atom_site_fract_y
 _atom_site_fract_z
 _atom_site_occupancy
  Na  Na0  1  0.337335  0.843210  0.337301  1
  Na  Na1  1  0.332898  0.824744  0.837438  1
  Na  Na2  1  0.332898  0.324744  0.162562  1
  Na  Na3  1  0.667833  0.668342  0.746473  1
  Na  Na4  1  0.337335  0.343210  0.662699  1
  Na  Na5  1  0.667833  0.168342  0.253527  1
  Y  Y6  1  0.999837  0.499062  0.997721  1
  Y  Y7  1  0.665391  0.665374  0.247824  1
  Y  Y8  1  0.999837  0.999062  0.002279  1
  Y  Y9  1  -0.000025  0.000898  0.499618  1
  Y  Y10  1  -0.000025  0.500898  0.500382  1
  Y  Y11  1  0.665391  0.165374  0.752176  1
  F  F12  1  0.241093  0.994839  0.252366  1
  F  F13  1  0.245742  0.984870  0.750576  1
  F  F14  1  0.022446  0.635244  0.250214  1
  F  F15  1  0.017412  0.629210  0.750601  1
  F  F16  1  0.404789  0.678443  0.019017  1
  F  F17  1  0.405010  0.679519  0.474898  1
  F  F18  1  0.245742  0.484870  0.249424  1
  F  F19  1  0.241093  0.494839  0.747634  1
  F  F20  1  0.724746  0.877460  0.248262  1
  F  F21  1  0.749429  0.879744  0.750953  1
  F  F22  1  0.017412  0.129210  0.249399  1
  F  F23  1  0.022446  0.135244  0.749786  1
  F  F24  1  0.640033  0.521641  0.021608  1
  F  F25  1  0.640224  0.522368  0.481137  1
  F  F26  1  0.955849  0.797512  0.021972  1
  F  F27  1  0.949959  0.797521  0.475413  1
  F  F28  1  0.405010  0.179519  0.525102  1
  F  F29  1  0.404789  0.178443  0.980983  1
  F  F30  1  0.749429  0.379744  0.249047  1
  F  F31  1  0.724746  0.377460  0.751738  1
  F  F32  1  0.640033  0.021641  0.978392  1
  F  F33  1  0.640224  0.022368  0.518863  1
  F  F34  1  0.955849  0.297512  0.978028  1
  F  F35  1  0.949959  0.297521  0.524587  1
