# generated using pymatgen
data_U6Fe16Si7
_symmetry_space_group_name_H-M   'P 1'
_cell_length_a   8.21681637
_cell_length_b   8.23195878
_cell_length_c   8.21615032
_cell_angle_alpha   60.01091439
_cell_angle_beta   59.91280515
_cell_angle_gamma   59.89953032
_symmetry_Int_Tables_number   1
_chemical_formula_structural   U6Fe16Si7
_chemical_formula_sum   'U6 Fe16 Si7'
_cell_volume   392.44467193
_cell_formula_units_Z   1
loop_
 _symmetry_equiv_pos_site_id
 _symmetry_equiv_pos_as_xyz
  1  'x, y, z'
loop_
 _atom_site_type_symbol
 _atom_site_label
 _atom_site_symmetry_multiplicity
 _atom_site_fract_x
 _atom_site_fract_y
 _atom_site_fract_z
 _atom_site_occupancy
  U  U0  1  0.718182  0.282127  0.281827  1
  U  U1  1  0.281687  0.718193  0.718184  1
  U  U2  1  0.718100  0.281876  0.717952  1
  U  U3  1  0.282193  0.718024  0.282011  1
  U  U4  1  0.281930  0.282047  0.718085  1
  U  U5  1  0.718104  0.717993  0.281711  1
  Fe  Fe6  1  0.670685  0.670460  0.670714  1
  Fe  Fe7  1  0.670453  0.988555  0.670534  1
  Fe  Fe8  1  0.329580  0.011236  0.329589  1
  Fe  Fe9  1  0.011046  0.329950  0.329385  1
  Fe  Fe10  1  0.634373  0.121119  0.122102  1
  Fe  Fe11  1  0.329191  0.329488  0.329102  1
  Fe  Fe12  1  0.878047  0.878445  0.877946  1
  Fe  Fe13  1  0.122120  0.121571  0.122179  1
  Fe  Fe14  1  0.671231  0.670781  0.986984  1
  Fe  Fe15  1  0.328752  0.329368  0.013005  1
  Fe  Fe16  1  0.988880  0.670134  0.670619  1
  Fe  Fe17  1  0.121222  0.634906  0.122004  1
  Fe  Fe18  1  0.878674  0.365013  0.878082  1
  Fe  Fe19  1  0.878125  0.878383  0.365673  1
  Fe  Fe20  1  0.365492  0.878710  0.878005  1
  Fe  Fe21  1  0.121929  0.121559  0.634247  1
  Si  Si22  1  0.999973  0.500190  -0.000044  1
  Si  Si23  1  1.000004  -0.000062  -0.000181  1
  Si  Si24  1  0.500048  0.000004  1.000154  1
  Si  Si25  1  0.499959  -0.000189  0.500039  1
  Si  Si26  1  1.000118  -0.000044  0.500195  1
  Si  Si27  1  0.999845  0.500055  0.500057  1
  Si  Si28  1  0.500057  0.500109  -0.000160  1
