# generated using pymatgen
data_H8N2O
_symmetry_space_group_name_H-M   'P 1'
_cell_length_a   10.05825877
_cell_length_b   9.05584365
_cell_length_c   4.42880124
_cell_angle_alpha   90.00000000
_cell_angle_beta   86.39559902
_cell_angle_gamma   90.00000000
_symmetry_Int_Tables_number   1
_chemical_formula_structural   H8N2O
_chemical_formula_sum   'H32 N8 O4'
_cell_volume   402.60390487
_cell_formula_units_Z   4
loop_
 _symmetry_equiv_pos_site_id
 _symmetry_equiv_pos_as_xyz
  1  'x, y, z'
loop_
 _atom_site_type_symbol
 _atom_site_label
 _atom_site_symmetry_multiplicity
 _atom_site_fract_x
 _atom_site_fract_y
 _atom_site_fract_z
 _atom_site_occupancy
  H  H0  1  0.460220  0.807771  0.502110  1
  H  H1  1  0.259895  0.919218  0.594411  1
  H  H2  1  0.374852  0.661835  0.533199  1
  H  H3  1  0.609209  0.615707  0.254265  1
  H  H4  1  0.240727  0.886626  0.952871  1
  H  H5  1  0.370949  0.552789  0.002481  1
  H  H6  1  0.537006  0.813554  0.973978  1
  H  H7  1  0.173264  0.660374  0.253446  1
  H  H8  1  0.079042  0.521242  0.364363  1
  H  H9  1  0.973087  0.364271  0.542986  1
  H  H10  1  0.344955  0.185796  0.256745  1
  H  H11  1  0.138270  0.129503  0.356207  1
  H  H12  1  0.912901  0.074780  0.248662  1
  H  H13  1  0.254233  0.457568  0.847038  1
  H  H14  1  0.993028  0.317182  0.895156  1
  H  H15  1  0.153065  0.098639  0.005589  1
  H  H16  1  0.579042  0.978758  0.864363  1
  H  H17  1  0.473087  0.135729  0.042986  1
  H  H18  1  0.493028  0.182818  0.395156  1
  H  H19  1  0.653065  0.401361  0.505589  1
  H  H20  1  0.754233  0.042432  0.347038  1
  H  H21  1  0.638270  0.370497  0.856207  1
  H  H22  1  0.412901  0.425220  0.748662  1
  H  H23  1  0.844955  0.314204  0.756745  1
  H  H24  1  0.960220  0.692229  0.002110  1
  H  H25  1  0.109209  0.884293  0.754265  1
  H  H26  1  0.759895  0.580782  0.094411  1
  H  H27  1  0.740727  0.613374  0.452871  1
  H  H28  1  0.673264  0.839626  0.753446  1
  H  H29  1  0.037006  0.686446  0.473978  1
  H  H30  1  0.874852  0.838165  0.033199  1
  H  H31  1  0.870949  0.947211  0.502481  1
  N  N32  1  0.076016  0.628004  0.290228  1
  N  N33  1  0.431646  0.126400  0.259075  1
  N  N34  1  0.931646  0.373600  0.759075  1
  N  N35  1  0.576016  0.871996  0.790228  1
  N  N36  1  0.696589  0.559595  0.280999  1
  N  N37  1  0.844804  0.992823  0.302756  1
  N  N38  1  0.344804  0.507177  0.802756  1
  N  N39  1  0.196589  0.940405  0.780999  1
  O  O40  1  0.401168  0.742472  0.385368  1
  O  O41  1  0.119840  0.173660  0.162786  1
  O  O42  1  0.619840  0.326340  0.662786  1
  O  O43  1  0.901168  0.757528  0.885368  1
