# generated using pymatgen
data_P(HO)3
_symmetry_space_group_name_H-M   'P 1'
_cell_length_a   7.53575307
_cell_length_b   12.17646878
_cell_length_c   6.96328102
_cell_angle_alpha   89.69184615
_cell_angle_beta   90.00000000
_cell_angle_gamma   90.00000000
_symmetry_Int_Tables_number   1
_chemical_formula_structural   P(HO)3
_chemical_formula_sum   'P8 H24 O24'
_cell_volume   638.93350099
_cell_formula_units_Z   8
loop_
 _symmetry_equiv_pos_site_id
 _symmetry_equiv_pos_as_xyz
  1  'x, y, z'
loop_
 _atom_site_type_symbol
 _atom_site_label
 _atom_site_symmetry_multiplicity
 _atom_site_fract_x
 _atom_site_fract_y
 _atom_site_fract_z
 _atom_site_occupancy
  P  P0  1  0.477882  0.381057  0.021800  1
  P  P1  1  0.512691  0.635820  0.535856  1
  P  P2  1  0.022118  0.881057  0.521800  1
  P  P3  1  0.987309  0.135820  0.035856  1
  P  P4  1  0.548246  0.104809  0.463155  1
  P  P5  1  0.419934  0.872213  0.946697  1
  P  P6  1  0.951754  0.604809  0.963155  1
  P  P7  1  0.080066  0.372213  0.446697  1
  H  H8  1  0.770812  0.454654  0.981715  1
  H  H9  1  0.784555  0.313438  0.922543  1
  H  H10  1  0.230172  0.684755  0.448043  1
  H  H11  1  0.729188  0.954654  0.481715  1
  H  H12  1  0.715445  0.813438  0.422543  1
  H  H13  1  0.269828  0.184755  0.948043  1
  H  H14  1  0.453602  0.271577  0.746971  1
  H  H15  1  0.570319  0.718675  0.236977  1
  H  H16  1  0.046398  0.771577  0.246971  1
  H  H17  1  0.929681  0.218675  0.736977  1
  H  H18  1  0.294404  0.520452  0.958550  1
  H  H19  1  0.481771  0.473672  0.402310  1
  H  H20  1  0.205596  0.020452  0.458550  1
  H  H21  1  0.018229  0.973672  0.902310  1
  H  H22  1  0.442808  0.273486  0.431613  1
  H  H23  1  0.536792  0.706257  0.886036  1
  H  H24  1  0.057192  0.773486  0.931613  1
  H  H25  1  0.963208  0.206257  0.386036  1
  H  H26  1  0.534727  0.070874  0.152224  1
  H  H27  1  0.425618  0.940793  0.644628  1
  H  H28  1  0.965273  0.570874  0.652224  1
  H  H29  1  0.074382  0.440793  0.144628  1
  H  H30  1  0.696084  0.953028  0.993327  1
  H  H31  1  0.803916  0.453028  0.493327  1
  O  O32  1  0.704021  0.386517  0.941352  1
  O  O33  1  0.316742  0.622459  0.446343  1
  O  O34  1  0.795979  0.886517  0.441352  1
  O  O35  1  0.183258  0.122459  0.946343  1
  O  O36  1  0.423933  0.277931  0.889547  1
  O  O37  1  0.612152  0.719847  0.374311  1
  O  O38  1  0.076067  0.777931  0.389547  1
  O  O39  1  0.887848  0.219847  0.874311  1
  O  O40  1  0.421920  0.489805  0.912456  1
  O  O41  1  0.580490  0.513018  0.464183  1
  O  O42  1  0.078080  0.989805  0.412456  1
  O  O43  1  0.919510  0.013018  0.964183  1
  O  O44  1  0.509872  0.235384  0.533944  1
  O  O45  1  0.502096  0.748801  0.001302  1
  O  O46  1  0.990128  0.735384  0.033944  1
  O  O47  1  0.997904  0.248801  0.501302  1
  O  O48  1  0.524495  0.136852  0.236805  1
  O  O49  1  0.469790  0.871983  0.721372  1
  O  O50  1  0.975505  0.636852  0.736805  1
  O  O51  1  0.030210  0.371983  0.221372  1
  O  O52  1  0.378811  0.038360  0.525804  1
  O  O53  1  0.571849  0.952777  0.042586  1
  O  O54  1  0.121189  0.538360  0.025804  1
  O  O55  1  0.928151  0.452777  0.542586  1
