# generated using pymatgen
data_Hf6Co16Si7
_symmetry_space_group_name_H-M   'P 1'
_cell_length_a   8.03155475
_cell_length_b   8.02971225
_cell_length_c   8.03057357
_cell_angle_alpha   60.01439912
_cell_angle_beta   59.99875756
_cell_angle_gamma   59.98323757
_symmetry_Int_Tables_number   1
_chemical_formula_structural   Hf6Co16Si7
_chemical_formula_sum   'Hf6 Co16 Si7'
_cell_volume   366.20078794
_cell_formula_units_Z   1
loop_
 _symmetry_equiv_pos_site_id
 _symmetry_equiv_pos_as_xyz
  1  'x, y, z'
loop_
 _atom_site_type_symbol
 _atom_site_label
 _atom_site_symmetry_multiplicity
 _atom_site_fract_x
 _atom_site_fract_y
 _atom_site_fract_z
 _atom_site_occupancy
  Hf  Hf0  1  0.794852  0.794860  0.205200  1
  Hf  Hf1  1  0.794673  0.205207  0.794782  1
  Hf  Hf2  1  0.205333  0.205217  0.794740  1
  Hf  Hf3  1  0.205038  0.794867  0.205188  1
  Hf  Hf4  1  0.205165  0.794773  0.794876  1
  Hf  Hf5  1  0.794691  0.205169  0.205405  1
  Co  Co6  1  0.619369  0.141689  0.619446  1
  Co  Co7  1  0.488623  0.170606  0.170338  1
  Co  Co8  1  0.380275  0.379996  0.859413  1
  Co  Co9  1  0.827966  0.827970  0.516135  1
  Co  Co10  1  0.170551  0.170446  0.488354  1
  Co  Co11  1  0.828026  0.516003  0.827934  1
  Co  Co12  1  0.170611  0.488358  0.170354  1
  Co  Co13  1  0.619451  0.619437  0.141558  1
  Co  Co14  1  0.170609  0.170770  0.170596  1
  Co  Co15  1  0.380339  0.859135  0.380140  1
  Co  Co16  1  0.619427  0.619466  0.619562  1
  Co  Co17  1  0.859034  0.380391  0.380284  1
  Co  Co18  1  0.380235  0.380237  0.380330  1
  Co  Co19  1  0.827947  0.828139  0.827997  1
  Co  Co20  1  0.141782  0.619351  0.619444  1
  Co  Co21  1  0.515965  0.828174  0.827949  1
  Si  Si22  1  1.000169  0.499878  0.499741  1
  Si  Si23  1  0.499920  0.000257  0.499559  1
  Si  Si24  1  0.500243  0.499572  0.500178  1
  Si  Si25  1  1.000282  0.499951  0.999987  1
  Si  Si26  1  0.499777  0.000518  0.000228  1
  Si  Si27  1  0.499709  0.499545  0.000255  1
  Si  Si28  1  -0.000059  0.000021  0.500025  1
