# generated using pymatgen
data_NaSrRe2
_symmetry_space_group_name_H-M   'P 1'
_cell_length_a   4.98522643
_cell_length_b   4.98531323
_cell_length_c   4.98553945
_cell_angle_alpha   59.99529678
_cell_angle_beta   59.99687364
_cell_angle_gamma   60.00134251
_symmetry_Int_Tables_number   1
_chemical_formula_structural   NaSrRe2
_chemical_formula_sum   'Na1 Sr1 Re2'
_cell_volume   87.60990392
_cell_formula_units_Z   1
loop_
 _symmetry_equiv_pos_site_id
 _symmetry_equiv_pos_as_xyz
  1  'x, y, z'
loop_
 _atom_site_type_symbol
 _atom_site_label
 _atom_site_symmetry_multiplicity
 _atom_site_fract_x
 _atom_site_fract_y
 _atom_site_fract_z
 _atom_site_occupancy
  Na  Na0  1  -0.000000  0.000001  0.000001  1
  Sr  Sr1  1  0.499994  0.500005  0.499993  1
  Re  Re2  1  0.250006  0.249998  0.250001  1
  Re  Re3  1  0.750000  0.749996  0.750006  1
