# generated using pymatgen
data_Ag7NO8
_symmetry_space_group_name_H-M   'P 1'
_cell_length_a   7.08525409
_cell_length_b   7.08662531
_cell_length_c   7.08642737
_cell_angle_alpha   59.98843219
_cell_angle_beta   59.98086093
_cell_angle_gamma   59.98361176
_symmetry_Int_Tables_number   1
_chemical_formula_structural   Ag7NO8
_chemical_formula_sum   'Ag7 N1 O8'
_cell_volume   251.50847376
_cell_formula_units_Z   1
loop_
 _symmetry_equiv_pos_site_id
 _symmetry_equiv_pos_as_xyz
  1  'x, y, z'
loop_
 _atom_site_type_symbol
 _atom_site_label
 _atom_site_symmetry_multiplicity
 _atom_site_fract_x
 _atom_site_fract_y
 _atom_site_fract_z
 _atom_site_occupancy
  Ag  Ag0  1  0.500002  0.499985  0.500006  1
  Ag  Ag1  1  0.781554  0.218393  0.781568  1
  Ag  Ag2  1  0.781554  0.218384  0.218484  1
  Ag  Ag3  1  0.781610  0.781536  0.218431  1
  Ag  Ag4  1  0.218422  0.781533  0.781603  1
  Ag  Ag5  1  0.218466  0.218402  0.781568  1
  Ag  Ag6  1  0.218427  0.781509  0.218463  1
  N  N7  1  0.999996  0.999980  0.000004  1
  O  O8  1  0.106901  0.631040  0.630954  1
  O  O9  1  0.630954  0.631083  0.106814  1
  O  O10  1  0.630985  0.106805  0.631029  1
  O  O11  1  0.631030  0.631159  0.631072  1
  O  O12  1  0.893147  0.369036  0.368985  1
  O  O13  1  0.369007  0.368985  0.893223  1
  O  O14  1  0.369014  0.893262  0.368938  1
  O  O15  1  0.368929  0.368907  0.368858  1
