# generated using pymatgen
data_TaAg7S6
_symmetry_space_group_name_H-M   'P 1'
_cell_length_a   7.44677069
_cell_length_b   7.70615864
_cell_length_c   10.66556726
_cell_angle_alpha   89.45154857
_cell_angle_beta   90.00000000
_cell_angle_gamma   90.00000000
_symmetry_Int_Tables_number   1
_chemical_formula_structural   TaAg7S6
_chemical_formula_sum   'Ta2 Ag14 S12'
_cell_volume   612.02616222
_cell_formula_units_Z   2
loop_
 _symmetry_equiv_pos_site_id
 _symmetry_equiv_pos_as_xyz
  1  'x, y, z'
loop_
 _atom_site_type_symbol
 _atom_site_label
 _atom_site_symmetry_multiplicity
 _atom_site_fract_x
 _atom_site_fract_y
 _atom_site_fract_z
 _atom_site_occupancy
  Ta  Ta0  1  0.252486  0.997518  0.003416  1
  Ta  Ta1  1  0.747514  0.497518  0.503416  1
  Ag  Ag2  1  0.646620  0.702032  0.848870  1
  Ag  Ag3  1  0.912607  0.293039  0.802483  1
  Ag  Ag4  1  0.469580  0.705758  0.236390  1
  Ag  Ag5  1  0.712253  0.040344  0.970098  1
  Ag  Ag6  1  0.119881  0.922236  0.712073  1
  Ag  Ag7  1  0.353380  0.202032  0.348870  1
  Ag  Ag8  1  0.040318  0.215518  0.520755  1
  Ag  Ag9  1  0.880119  0.422236  0.212073  1
  Ag  Ag10  1  0.570183  0.926477  0.545305  1
  Ag  Ag11  1  0.959682  0.715518  0.020755  1
  Ag  Ag12  1  0.287747  0.540344  0.470098  1
  Ag  Ag13  1  0.087393  0.793039  0.302483  1
  Ag  Ag14  1  0.429817  0.426477  0.045305  1
  Ag  Ag15  1  0.530420  0.205758  0.736390  1
  S  S16  1  0.770605  0.975306  0.738592  1
  S  S17  1  0.512217  0.514296  0.645460  1
  S  S18  1  0.240655  0.956532  0.489562  1
  S  S19  1  0.487783  0.014296  0.145460  1
  S  S20  1  0.759345  0.456532  0.989562  1
  S  S21  1  0.260745  0.743713  0.888669  1
  S  S22  1  0.748443  0.742926  0.376167  1
  S  S23  1  0.251557  0.242926  0.876167  1
  S  S24  1  0.995669  0.013305  0.125160  1
  S  S25  1  0.229395  0.475306  0.238592  1
  S  S26  1  0.739255  0.243713  0.388669  1
  S  S27  1  0.004331  0.513305  0.625160  1
