# generated using pymatgen
data_Ca19In8N7
_symmetry_space_group_name_H-M   'P 1'
_cell_length_a   10.43828550
_cell_length_b   10.44116198
_cell_length_c   10.44084741
_cell_angle_alpha   90.01844072
_cell_angle_beta   119.98773755
_cell_angle_gamma   119.99618232
_symmetry_Int_Tables_number   1
_chemical_formula_structural   Ca19In8N7
_chemical_formula_sum   'Ca19 In8 N7'
_cell_volume   804.70073373
_cell_formula_units_Z   1
loop_
 _symmetry_equiv_pos_site_id
 _symmetry_equiv_pos_as_xyz
  1  'x, y, z'
loop_
 _atom_site_type_symbol
 _atom_site_label
 _atom_site_symmetry_multiplicity
 _atom_site_fract_x
 _atom_site_fract_y
 _atom_site_fract_z
 _atom_site_occupancy
  Ca  Ca0  1  0.326712  0.499941  0.499694  1
  Ca  Ca1  1  0.673297  0.499902  0.173219  1
  Ca  Ca2  1  0.000095  0.500090  0.826838  1
  Ca  Ca3  1  0.000596  0.833570  0.166618  1
  Ca  Ca4  1  0.673412  0.500064  0.500239  1
  Ca  Ca5  1  0.000091  0.499858  0.173228  1
  Ca  Ca6  1  0.666980  0.833296  0.833399  1
  Ca  Ca7  1  0.326961  0.826862  0.500009  1
  Ca  Ca8  1  0.333146  0.166252  0.166538  1
  Ca  Ca9  1  0.999576  0.166179  0.833159  1
  Ca  Ca10  1  0.673370  0.173160  0.173456  1
  Ca  Ca11  1  0.000115  0.500096  0.500029  1
  Ca  Ca12  1  0.000015  0.826852  0.500125  1
  Ca  Ca13  1  0.999880  0.166209  0.166441  1
  Ca  Ca14  1  0.326844  0.500156  0.826770  1
  Ca  Ca15  1  0.326782  0.826964  0.826912  1
  Ca  Ca16  1  0.673276  0.173300  0.500253  1
  Ca  Ca17  1  0.999817  0.833535  0.833325  1
  Ca  Ca18  1  0.000046  0.173316  0.499905  1
  In  In19  1  0.650435  0.174786  0.825278  1
  In  In20  1  0.650750  0.825770  0.475781  1
  In  In21  1  0.349188  0.174641  0.825220  1
  In  In22  1  0.349366  0.174455  0.523940  1
  In  In23  1  0.650270  0.825214  0.174918  1
  In  In24  1  0.649783  0.475345  0.824885  1
  In  In25  1  0.349576  0.524396  0.174838  1
  In  In26  1  0.349498  0.825530  0.175032  1
  N  N27  1  0.000080  0.326323  0.673797  1
  N  N28  1  0.999918  0.673651  0.673620  1
  N  N29  1  0.999995  0.326367  0.326275  1
  N  N30  1  0.999994  0.673739  0.326186  1
  N  N31  1  0.347522  0.673936  0.673759  1
  N  N32  1  0.652662  0.326322  0.326399  1
  N  N33  1  0.999956  0.999920  0.999915  1
