# generated using pymatgen
data_Ba(H8O5)2
_symmetry_space_group_name_H-M   'P 1'
_cell_length_a   6.48781052
_cell_length_b   6.49295486
_cell_length_c   11.45469482
_cell_angle_alpha   90.09012936
_cell_angle_beta   89.91903466
_cell_angle_gamma   90.22131091
_symmetry_Int_Tables_number   1
_chemical_formula_structural   Ba(H8O5)2
_chemical_formula_sum   'Ba2 H32 O20'
_cell_volume   482.52504169
_cell_formula_units_Z   2
loop_
 _symmetry_equiv_pos_site_id
 _symmetry_equiv_pos_as_xyz
  1  'x, y, z'
loop_
 _atom_site_type_symbol
 _atom_site_label
 _atom_site_symmetry_multiplicity
 _atom_site_fract_x
 _atom_site_fract_y
 _atom_site_fract_z
 _atom_site_occupancy
  Ba  Ba0  1  0.997997  0.994689  0.251165  1
  Ba  Ba1  1  0.000130  0.992656  0.748658  1
  H  H2  1  0.044152  0.454729  0.375023  1
  H  H3  1  0.281754  0.396911  0.352616  1
  H  H4  1  0.720208  0.589329  0.351101  1
  H  H5  1  0.848835  0.660090  0.464694  1
  H  H6  1  0.590700  0.273025  0.349692  1
  H  H7  1  0.661148  0.150815  0.464804  1
  H  H8  1  0.400286  0.717526  0.354816  1
  H  H9  1  0.446055  0.958608  0.376127  1
  H  H10  1  0.716446  0.393073  0.854670  1
  H  H11  1  0.955482  0.449841  0.874092  1
  H  H12  1  0.276502  0.593998  0.854416  1
  H  H13  1  0.145433  0.665978  0.966904  1
  H  H14  1  0.406127  0.270811  0.850065  1
  H  H15  1  0.335599  0.144299  0.962831  1
  H  H16  1  0.545472  0.956412  0.871741  1
  H  H17  1  0.601694  0.716846  0.855072  1
  H  H18  1  0.954879  0.532121  0.624421  1
  H  H19  1  0.716891  0.593986  0.643881  1
  H  H20  1  0.155826  0.332491  0.535272  1
  H  H21  1  0.276136  0.399409  0.651042  1
  H  H22  1  0.402128  0.717863  0.647004  1
  H  H23  1  0.327132  0.844961  0.533649  1
  H  H24  1  0.541867  0.040143  0.625067  1
  H  H25  1  0.599293  0.278843  0.644837  1
  H  H26  1  0.045461  0.535577  0.126823  1
  H  H27  1  0.284507  0.597104  0.142782  1
  H  H28  1  0.846203  0.325217  0.036478  1
  H  H29  1  0.723066  0.397028  0.149502  1
  H  H30  1  0.598684  0.717399  0.143711  1
  H  H31  1  0.670124  0.852687  0.032436  1
  H  H32  1  0.453486  0.032877  0.125516  1
  H  H33  1  0.398729  0.272900  0.140418  1
  O  O34  1  0.498599  0.496955  0.312507  1
  O  O35  1  0.497784  0.494968  0.816311  1
  O  O36  1  0.496967  0.496312  0.686061  1
  O  O37  1  0.501545  0.496739  0.182227  1
  O  O38  1  0.145439  0.339505  0.383198  1
  O  O39  1  0.858350  0.648970  0.377606  1
  O  O40  1  0.647510  0.135950  0.378071  1
  O  O41  1  0.335961  0.851144  0.384140  1
  O  O42  1  0.853331  0.334336  0.882002  1
  O  O43  1  0.138308  0.653396  0.879761  1
  O  O44  1  0.347006  0.132627  0.875900  1
  O  O45  1  0.660599  0.854089  0.881687  1
  O  O46  1  0.855046  0.648811  0.615210  1
  O  O47  1  0.139545  0.340226  0.622191  1
  O  O48  1  0.344039  0.855752  0.620440  1
  O  O49  1  0.657239  0.141490  0.616729  1
  O  O50  1  0.144543  0.653218  0.117983  1
  O  O51  1  0.861233  0.338834  0.123025  1
  O  O52  1  0.655357  0.857928  0.119482  1
  O  O53  1  0.339643  0.134987  0.114799  1
