# generated using pymatgen
data_V2Bi4O11
_symmetry_space_group_name_H-M   'P 1'
_cell_length_a   5.94524536
_cell_length_b   5.64827902
_cell_length_c   16.38717000
_cell_angle_alpha   90.00000000
_cell_angle_beta   108.75771490
_cell_angle_gamma   90.00000000
_symmetry_Int_Tables_number   1
_chemical_formula_structural   V2Bi4O11
_chemical_formula_sum   'V4 Bi8 O22'
_cell_volume   521.06027513
_cell_formula_units_Z   2
loop_
 _symmetry_equiv_pos_site_id
 _symmetry_equiv_pos_as_xyz
  1  'x, y, z'
loop_
 _atom_site_type_symbol
 _atom_site_label
 _atom_site_symmetry_multiplicity
 _atom_site_fract_x
 _atom_site_fract_y
 _atom_site_fract_z
 _atom_site_occupancy
  V  V0  1  0.058843  0.986954  0.491482  1
  V  V1  1  0.983304  0.950680  0.002851  1
  V  V2  1  0.483304  0.549320  0.502851  1
  V  V3  1  0.558843  0.513046  0.991482  1
  Bi  Bi4  1  0.125326  0.481235  0.642050  1
  Bi  Bi5  1  0.348931  0.051404  0.814605  1
  Bi  Bi6  1  0.205141  0.462409  0.166771  1
  Bi  Bi7  1  0.417192  0.903886  0.328582  1
  Bi  Bi8  1  0.705141  0.037591  0.666771  1
  Bi  Bi9  1  0.917192  0.596114  0.828582  1
  Bi  Bi10  1  0.625326  0.018765  0.142050  1
  Bi  Bi11  1  0.848931  0.448596  0.314605  1
  O  O12  1  0.006191  0.276713  0.743657  1
  O  O13  1  0.058282  0.787051  0.739929  1
  O  O14  1  0.476035  0.347243  0.068692  1
  O  O15  1  0.947315  0.260137  0.214953  1
  O  O16  1  0.106809  0.699179  0.259708  1
  O  O17  1  0.396505  0.449060  0.885120  1
  O  O18  1  0.279844  0.330203  0.497159  1
  O  O19  1  0.365624  0.844903  0.508096  1
  O  O20  1  0.447315  0.239863  0.714953  1
  O  O21  1  0.606809  0.800821  0.759708  1
  O  O22  1  0.204421  0.990418  0.101893  1
  O  O23  1  0.779844  0.169797  0.997159  1
  O  O24  1  0.539094  0.547190  0.404327  1
  O  O25  1  0.704421  0.509582  0.601893  1
  O  O26  1  0.444742  0.772997  0.007525  1
  O  O27  1  0.506191  0.223287  0.243657  1
  O  O28  1  0.558282  0.712949  0.239929  1
  O  O29  1  0.039094  0.952810  0.904327  1
  O  O30  1  0.976035  0.152757  0.568692  1
  O  O31  1  0.944742  0.727003  0.507525  1
  O  O32  1  0.896505  0.050940  0.385120  1
  O  O33  1  0.865624  0.655097  0.008096  1
