# generated using pymatgen
data_Na2SrFe
_symmetry_space_group_name_H-M   'P 1'
_cell_length_a   5.40138872
_cell_length_b   5.41190121
_cell_length_c   5.40199507
_cell_angle_alpha   59.95375430
_cell_angle_beta   60.12709105
_cell_angle_gamma   59.96914360
_symmetry_Int_Tables_number   1
_chemical_formula_structural   Na2SrFe
_chemical_formula_sum   'Na2 Sr1 Fe1'
_cell_volume   111.70074419
_cell_formula_units_Z   1
loop_
 _symmetry_equiv_pos_site_id
 _symmetry_equiv_pos_as_xyz
  1  'x, y, z'
loop_
 _atom_site_type_symbol
 _atom_site_label
 _atom_site_symmetry_multiplicity
 _atom_site_fract_x
 _atom_site_fract_y
 _atom_site_fract_z
 _atom_site_occupancy
  Na  Na0  1  0.249998  0.249983  0.250001  1
  Na  Na1  1  0.749999  0.750016  0.749997  1
  Sr  Sr2  1  0.499998  0.499999  0.500000  1
  Fe  Fe3  1  0.000005  0.000002  0.000003  1
