# generated using pymatgen
data_Ca(H8O5)2
_symmetry_space_group_name_H-M   'P 1'
_cell_length_a   6.13582122
_cell_length_b   6.14204406
_cell_length_c   11.34684430
_cell_angle_alpha   88.81494763
_cell_angle_beta   90.00000000
_cell_angle_gamma   90.00000000
_symmetry_Int_Tables_number   1
_chemical_formula_structural   Ca(H8O5)2
_chemical_formula_sum   'Ca2 H32 O20'
_cell_volume   427.53120661
_cell_formula_units_Z   2
loop_
 _symmetry_equiv_pos_site_id
 _symmetry_equiv_pos_as_xyz
  1  'x, y, z'
loop_
 _atom_site_type_symbol
 _atom_site_label
 _atom_site_symmetry_multiplicity
 _atom_site_fract_x
 _atom_site_fract_y
 _atom_site_fract_z
 _atom_site_occupancy
  Ca  Ca0  1  0.006877  0.992789  0.500126  1
  Ca  Ca1  1  0.993123  0.992789  0.000126  1
  H  H2  1  0.277412  0.372780  0.391579  1
  H  H3  1  0.032790  0.437326  0.384871  1
  H  H4  1  0.919010  0.705203  0.292376  1
  H  H5  1  0.735579  0.621957  0.389202  1
  H  H6  1  0.694678  0.078923  0.293844  1
  H  H7  1  0.619759  0.268393  0.390279  1
  H  H8  1  0.441767  0.968861  0.386887  1
  H  H9  1  0.371460  0.726168  0.389695  1
  H  H10  1  0.722588  0.372780  0.891579  1
  H  H11  1  0.967210  0.437326  0.884871  1
  H  H12  1  0.264421  0.621957  0.889202  1
  H  H13  1  0.080990  0.705203  0.792376  1
  H  H14  1  0.305322  0.078923  0.793844  1
  H  H15  1  0.380241  0.268393  0.890279  1
  H  H16  1  0.628540  0.726168  0.889695  1
  H  H17  1  0.558233  0.968861  0.886887  1
  H  H18  1  0.726314  0.628877  0.609834  1
  H  H19  1  0.968742  0.559287  0.612641  1
  H  H20  1  0.269804  0.379061  0.609749  1
  H  H21  1  0.076532  0.304937  0.706763  1
  H  H22  1  0.373894  0.724225  0.607745  1
  H  H23  1  0.441674  0.967056  0.616789  1
  H  H24  1  0.706136  0.078379  0.706676  1
  H  H25  1  0.622183  0.266396  0.610573  1
  H  H26  1  0.031258  0.559287  0.112641  1
  H  H27  1  0.273686  0.628877  0.109834  1
  H  H28  1  0.730196  0.379061  0.109749  1
  H  H29  1  0.923468  0.304937  0.206763  1
  H  H30  1  0.558326  0.967056  0.116789  1
  H  H31  1  0.626106  0.724225  0.107745  1
  H  H32  1  0.377817  0.266396  0.110573  1
  H  H33  1  0.293864  0.078379  0.206676  1
  O  O34  1  0.506686  0.488550  0.433525  1
  O  O35  1  0.493314  0.488550  0.933525  1
  O  O36  1  0.497860  0.487534  0.566377  1
  O  O37  1  0.502140  0.487534  0.066377  1
  O  O38  1  0.128977  0.309012  0.372348  1
  O  O39  1  0.889536  0.679513  0.376857  1
  O  O40  1  0.686623  0.116091  0.377460  1
  O  O41  1  0.311862  0.876243  0.373605  1
  O  O42  1  0.871023  0.309012  0.872348  1
  O  O43  1  0.110464  0.679513  0.876857  1
  O  O44  1  0.313377  0.116091  0.877460  1
  O  O45  1  0.688138  0.876243  0.873605  1
  O  O46  1  0.875855  0.688756  0.625709  1
  O  O47  1  0.116593  0.313861  0.622895  1
  O  O48  1  0.312035  0.870441  0.629158  1
  O  O49  1  0.680122  0.110625  0.622436  1
  O  O50  1  0.124145  0.688756  0.125709  1
  O  O51  1  0.883407  0.313861  0.122895  1
  O  O52  1  0.687965  0.870441  0.129158  1
  O  O53  1  0.319878  0.110625  0.122436  1
