# generated using pymatgen
data_Ti6Co16Si7
_symmetry_space_group_name_H-M   'P 1'
_cell_length_a   7.82894772
_cell_length_b   7.82759329
_cell_length_c   7.82691164
_cell_angle_alpha   59.99830484
_cell_angle_beta   60.00598538
_cell_angle_gamma   60.01872923
_symmetry_Int_Tables_number   1
_chemical_formula_structural   Ti6Co16Si7
_chemical_formula_sum   'Ti6 Co16 Si7'
_cell_volume   339.22089359
_cell_formula_units_Z   1
loop_
 _symmetry_equiv_pos_site_id
 _symmetry_equiv_pos_as_xyz
  1  'x, y, z'
loop_
 _atom_site_type_symbol
 _atom_site_label
 _atom_site_symmetry_multiplicity
 _atom_site_fract_x
 _atom_site_fract_y
 _atom_site_fract_z
 _atom_site_occupancy
  Ti  Ti0  1  0.799936  0.800025  0.200011  1
  Ti  Ti1  1  0.799929  0.200009  0.800068  1
  Ti  Ti2  1  0.200030  0.199989  0.800001  1
  Ti  Ti3  1  0.200049  0.799973  0.199975  1
  Ti  Ti4  1  0.200064  0.799941  0.799989  1
  Ti  Ti5  1  0.799974  0.199983  0.199952  1
  Co  Co6  1  0.619139  0.142567  0.619128  1
  Co  Co7  1  0.499965  0.166675  0.166650  1
  Co  Co8  1  0.380946  0.380934  0.857356  1
  Co  Co9  1  0.833281  0.833334  0.500114  1
  Co  Co10  1  0.166694  0.166688  0.499926  1
  Co  Co11  1  0.833283  0.500143  0.833284  1
  Co  Co12  1  0.166701  0.499949  0.166673  1
  Co  Co13  1  0.619097  0.619063  0.142631  1
  Co  Co14  1  0.166763  0.166700  0.166705  1
  Co  Co15  1  0.380920  0.857413  0.380861  1
  Co  Co16  1  0.619092  0.619091  0.619219  1
  Co  Co17  1  0.857389  0.380884  0.380875  1
  Co  Co18  1  0.380962  0.380920  0.380775  1
  Co  Co19  1  0.833251  0.833357  0.833283  1
  Co  Co20  1  0.142527  0.619154  0.619152  1
  Co  Co21  1  0.500028  0.833376  0.833320  1
  Si  Si22  1  -0.000131  0.500125  0.500123  1
  Si  Si23  1  0.500148  -0.000146  0.500076  1
  Si  Si24  1  0.499952  0.500029  0.500025  1
  Si  Si25  1  -0.000158  0.500216  0.999815  1
  Si  Si26  1  0.500238  0.999824  -0.000146  1
  Si  Si27  1  0.500109  0.500037  -0.000094  1
  Si  Si28  1  -0.000184  0.999755  0.500256  1
