# generated using pymatgen
data_Sb5IO7
_symmetry_space_group_name_H-M   'P 1'
_cell_length_a   7.59129124
_cell_length_b   12.13312528
_cell_length_c   13.74180320
_cell_angle_alpha   90.00000000
_cell_angle_beta   90.00000000
_cell_angle_gamma   97.66334871
_symmetry_Int_Tables_number   1
_chemical_formula_structural   Sb5IO7
_chemical_formula_sum   'Sb20 I4 O28'
_cell_volume   1254.39935872
_cell_formula_units_Z   4
loop_
 _symmetry_equiv_pos_site_id
 _symmetry_equiv_pos_as_xyz
  1  'x, y, z'
loop_
 _atom_site_type_symbol
 _atom_site_label
 _atom_site_symmetry_multiplicity
 _atom_site_fract_x
 _atom_site_fract_y
 _atom_site_fract_z
 _atom_site_occupancy
  Sb  Sb0  1  0.382755  0.513790  0.505380  1
  Sb  Sb1  1  0.955010  0.840846  0.296216  1
  Sb  Sb2  1  0.894015  0.241976  0.742388  1
  Sb  Sb3  1  0.796784  0.440047  0.476114  1
  Sb  Sb4  1  0.989193  0.549290  0.758377  1
  Sb  Sb5  1  0.510353  0.038568  0.758265  1
  Sb  Sb6  1  0.357190  0.763483  0.706920  1
  Sb  Sb7  1  0.489193  0.049290  0.241623  1
  Sb  Sb8  1  0.010353  0.538568  0.241735  1
  Sb  Sb9  1  0.394015  0.741976  0.257612  1
  Sb  Sb10  1  0.584395  0.731130  0.915524  1
  Sb  Sb11  1  0.857190  0.263483  0.293080  1
  Sb  Sb12  1  0.874864  0.397176  0.993888  1
  Sb  Sb13  1  0.084395  0.231130  0.084476  1
  Sb  Sb14  1  0.296784  0.940047  0.523886  1
  Sb  Sb15  1  0.374864  0.897176  0.006112  1
  Sb  Sb16  1  0.455010  0.340846  0.703784  1
  Sb  Sb17  1  0.685192  0.129696  0.008963  1
  Sb  Sb18  1  0.185192  0.629696  0.991037  1
  Sb  Sb19  1  0.882755  0.013790  0.494620  1
  I  I20  1  0.851091  0.795366  0.047442  1
  I  I21  1  0.261228  0.273481  0.507995  1
  I  I22  1  0.761228  0.773481  0.492005  1
  I  I23  1  0.351091  0.295366  0.952558  1
  O  O24  1  0.493518  0.980718  0.622391  1
  O  O25  1  0.936913  0.095931  0.028276  1
  O  O26  1  0.322707  0.784838  0.124304  1
  O  O27  1  0.057747  0.497487  0.904830  1
  O  O28  1  0.632274  0.965548  0.316155  1
  O  O29  1  0.264401  0.586255  0.261003  1
  O  O30  1  0.591891  0.510066  0.419944  1
  O  O31  1  0.211686  0.797829  0.594480  1
  O  O32  1  0.091891  0.010066  0.580056  1
  O  O33  1  0.891769  0.666727  0.250374  1
  O  O34  1  0.204930  0.815648  0.323769  1
  O  O35  1  0.711686  0.297829  0.405520  1
  O  O36  1  0.391769  0.166727  0.749626  1
  O  O37  1  0.704930  0.315648  0.676231  1
  O  O38  1  0.525601  0.484848  0.618664  1
  O  O39  1  0.822707  0.284838  0.875696  1
  O  O40  1  0.161782  0.686723  0.788216  1
  O  O41  1  0.570826  0.022059  0.905254  1
  O  O42  1  0.436913  0.595931  0.971724  1
  O  O43  1  0.852856  0.399672  0.207562  1
  O  O44  1  0.661782  0.186723  0.211784  1
  O  O45  1  0.070826  0.522059  0.094746  1
  O  O46  1  0.557747  0.997487  0.095170  1
  O  O47  1  0.993518  0.480718  0.377609  1
  O  O48  1  0.764401  0.086255  0.738997  1
  O  O49  1  0.025601  0.984848  0.381336  1
  O  O50  1  0.352856  0.899672  0.792438  1
  O  O51  1  0.132274  0.465548  0.683845  1
