# generated using pymatgen
data_Nd3InC
_symmetry_space_group_name_H-M   'P 1'
_cell_length_a   6.15177418
_cell_length_b   6.14842578
_cell_length_c   6.15198507
_cell_angle_alpha   90.03998432
_cell_angle_beta   89.98727448
_cell_angle_gamma   89.97310784
_symmetry_Int_Tables_number   1
_chemical_formula_structural   Nd3InC
_chemical_formula_sum   'Nd3 In1 C1'
_cell_volume   232.69091564
_cell_formula_units_Z   1
loop_
 _symmetry_equiv_pos_site_id
 _symmetry_equiv_pos_as_xyz
  1  'x, y, z'
loop_
 _atom_site_type_symbol
 _atom_site_label
 _atom_site_symmetry_multiplicity
 _atom_site_fract_x
 _atom_site_fract_y
 _atom_site_fract_z
 _atom_site_occupancy
  Nd  Nd0  1  0.000258  0.499988  0.499954  1
  Nd  Nd1  1  0.500307  0.999656  0.499919  1
  Nd  Nd2  1  0.499763  0.500236  0.000324  1
  In  In3  1  0.499654  0.500036  0.499727  1
  C  C4  1  0.000018  0.000083  0.000076  1
