# generated using pymatgen
data_H5NO2
_symmetry_space_group_name_H-M   'P 1'
_cell_length_a   7.17904475
_cell_length_b   7.91388497
_cell_length_c   5.80321461
_cell_angle_alpha   90.00000000
_cell_angle_beta   116.62129695
_cell_angle_gamma   90.00000000
_symmetry_Int_Tables_number   1
_chemical_formula_structural   H5NO2
_chemical_formula_sum   'H20 N4 O8'
_cell_volume   294.75188388
_cell_formula_units_Z   4
loop_
 _symmetry_equiv_pos_site_id
 _symmetry_equiv_pos_as_xyz
  1  'x, y, z'
loop_
 _atom_site_type_symbol
 _atom_site_label
 _atom_site_symmetry_multiplicity
 _atom_site_fract_x
 _atom_site_fract_y
 _atom_site_fract_z
 _atom_site_occupancy
  H  H0  1  0.483288  0.734688  0.581572  1
  H  H1  1  0.554602  0.923296  0.644220  1
  H  H2  1  0.536398  0.225181  0.924438  1
  H  H3  1  0.422296  0.400069  0.824043  1
  H  H4  1  0.536398  0.274819  0.424438  1
  H  H5  1  0.422296  0.099931  0.324043  1
  H  H6  1  0.483288  0.765312  0.081572  1
  H  H7  1  0.554602  0.576704  0.144220  1
  H  H8  1  0.750458  0.835869  0.481602  1
  H  H9  1  0.084142  0.677920  0.465379  1
  H  H10  1  0.870937  0.945096  0.359771  1
  H  H11  1  0.907944  0.180225  0.013995  1
  H  H12  1  0.223720  0.326545  0.000114  1
  H  H13  1  0.143542  0.437840  0.163918  1
  H  H14  1  0.143542  0.062160  0.663918  1
  H  H15  1  0.223720  0.173455  0.500114  1
  H  H16  1  0.907944  0.319775  0.513995  1
  H  H17  1  0.750458  0.664131  0.981602  1
  H  H18  1  0.870937  0.554904  0.859771  1
  H  H19  1  0.084142  0.822080  0.965379  1
  N  N20  1  0.784302  0.399192  0.497271  1
  N  N21  1  0.189328  0.910816  0.954598  1
  N  N22  1  0.189328  0.589184  0.454598  1
  N  N23  1  0.784302  0.100808  0.997271  1
  O  O24  1  0.508095  0.838149  0.506946  1
  O  O25  1  0.466328  0.319168  0.966393  1
  O  O26  1  0.466328  0.180832  0.466393  1
  O  O27  1  0.508095  0.661851  0.006946  1
  O  O28  1  0.874224  0.838989  0.448850  1
  O  O29  1  0.098227  0.356455  0.020019  1
  O  O30  1  0.098227  0.143545  0.520019  1
  O  O31  1  0.874224  0.661011  0.948850  1
