# generated using pymatgen
data_As3HO6
_symmetry_space_group_name_H-M   'P 1'
_cell_length_a   12.87904631
_cell_length_b   5.08848493
_cell_length_c   9.97622314
_cell_angle_alpha   90.00000000
_cell_angle_beta   120.43471912
_cell_angle_gamma   90.00000000
_symmetry_Int_Tables_number   1
_chemical_formula_structural   As3HO6
_chemical_formula_sum   'As12 H4 O24'
_cell_volume   563.70233316
_cell_formula_units_Z   4
loop_
 _symmetry_equiv_pos_site_id
 _symmetry_equiv_pos_as_xyz
  1  'x, y, z'
loop_
 _atom_site_type_symbol
 _atom_site_label
 _atom_site_symmetry_multiplicity
 _atom_site_fract_x
 _atom_site_fract_y
 _atom_site_fract_z
 _atom_site_occupancy
  As  As0  1  0.916995  0.196708  0.618459  1
  As  As1  1  0.049510  0.668509  0.875771  1
  As  As2  1  0.049510  0.831491  0.375771  1
  As  As3  1  0.916995  0.303292  0.118459  1
  As  As4  1  0.402706  0.497302  0.570455  1
  As  As5  1  0.571089  0.109946  0.860806  1
  As  As6  1  0.571089  0.390054  0.360806  1
  As  As7  1  0.402706  0.002698  0.070455  1
  As  As8  1  0.223695  0.380168  0.733558  1
  As  As9  1  0.764005  0.892834  0.759345  1
  As  As10  1  0.764005  0.607166  0.259345  1
  As  As11  1  0.223695  0.119832  0.233558  1
  H  H12  1  0.063047  0.129348  0.924815  1
  H  H13  1  0.063047  0.370652  0.424815  1
  H  H14  1  0.575119  0.708265  0.948265  1
  H  H15  1  0.575119  0.791735  0.448265  1
  O  O16  1  0.044025  0.036093  0.818150  1
  O  O17  1  0.951093  0.533154  0.685339  1
  O  O18  1  0.951093  0.966846  0.185339  1
  O  O19  1  0.044025  0.463907  0.318150  1
  O  O20  1  0.095214  0.251882  0.578177  1
  O  O21  1  0.894272  0.730430  0.888940  1
  O  O22  1  0.894272  0.769570  0.388940  1
  O  O23  1  0.095214  0.248118  0.078177  1
  O  O24  1  0.292129  0.527995  0.636503  1
  O  O25  1  0.723060  0.081807  0.876110  1
  O  O26  1  0.723060  0.418193  0.376110  1
  O  O27  1  0.292129  0.972005  0.136503  1
  O  O28  1  0.473943  0.184567  0.654164  1
  O  O29  1  0.532032  0.765129  0.834518  1
  O  O30  1  0.532032  0.734871  0.334518  1
  O  O31  1  0.473943  0.315433  0.154164  1
  O  O32  1  0.196241  0.612894  0.835599  1
  O  O33  1  0.800837  0.153721  0.674610  1
  O  O34  1  0.800837  0.346279  0.174610  1
  O  O35  1  0.196241  0.887106  0.335599  1
  O  O36  1  0.323967  0.145357  0.861395  1
  O  O37  1  0.646771  0.720478  0.627093  1
  O  O38  1  0.646771  0.779522  0.127093  1
  O  O39  1  0.323967  0.354643  0.361395  1
