# generated using pymatgen
data_Te(HO2)2
_symmetry_space_group_name_H-M   'P 1'
_cell_length_a   5.94900839
_cell_length_b   4.97040610
_cell_length_c   5.26565699
_cell_angle_alpha   90.00000000
_cell_angle_beta   112.27830074
_cell_angle_gamma   90.00000000
_symmetry_Int_Tables_number   1
_chemical_formula_structural   Te(HO2)2
_chemical_formula_sum   'Te2 H4 O8'
_cell_volume   144.07765371
_cell_formula_units_Z   2
loop_
 _symmetry_equiv_pos_site_id
 _symmetry_equiv_pos_as_xyz
  1  'x, y, z'
loop_
 _atom_site_type_symbol
 _atom_site_label
 _atom_site_symmetry_multiplicity
 _atom_site_fract_x
 _atom_site_fract_y
 _atom_site_fract_z
 _atom_site_occupancy
  Te  Te0  1  0.998006  0.500541  0.525094  1
  Te  Te1  1  0.998006  0.999459  0.025094  1
  H  H2  1  0.379159  0.323339  0.505081  1
  H  H3  1  0.619191  0.764465  0.751931  1
  H  H4  1  0.619191  0.735535  0.251931  1
  H  H5  1  0.379159  0.176661  0.005081  1
  O  O6  1  0.330740  0.368781  0.660598  1
  O  O7  1  0.667876  0.866122  0.926358  1
  O  O8  1  0.667876  0.633878  0.426358  1
  O  O9  1  0.330740  0.131219  0.160598  1
  O  O10  1  0.888008  0.187691  0.674344  1
  O  O11  1  0.105094  0.682038  0.878854  1
  O  O12  1  0.105094  0.817962  0.378854  1
  O  O13  1  0.888008  0.312309  0.174344  1
