# generated using pymatgen
data_K7(Mo9S11)4
_symmetry_space_group_name_H-M   'P 1'
_cell_length_a   13.20244151
_cell_length_b   52.82759310
_cell_length_c   24.69678050
_cell_angle_alpha   20.77283740
_cell_angle_beta   36.86282791
_cell_angle_gamma   41.57717090
_symmetry_Int_Tables_number   1
_chemical_formula_structural   K7(Mo9S11)4
_chemical_formula_sum   'K14 Mo72 S88'
_cell_volume   3664.81454673
_cell_formula_units_Z   2
loop_
 _symmetry_equiv_pos_site_id
 _symmetry_equiv_pos_as_xyz
  1  'x, y, z'
loop_
 _atom_site_type_symbol
 _atom_site_label
 _atom_site_symmetry_multiplicity
 _atom_site_fract_x
 _atom_site_fract_y
 _atom_site_fract_z
 _atom_site_occupancy
  K  K0  1  0.052581  -0.000001  0.052634  1
  K  K1  1  0.052621  0.249981  0.052644  1
  K  K2  1  0.449210  -0.000005  0.449252  1
  K  K3  1  0.447244  0.250198  0.447011  1
  K  K4  1  0.552618  0.250012  0.552581  1
  K  K5  1  0.947753  0.000013  0.947118  1
  K  K6  1  0.052651  0.750012  0.052575  1
  K  K7  1  0.447779  0.499985  0.447162  1
  K  K8  1  0.552577  0.499997  0.552633  1
  K  K9  1  0.947255  0.249816  0.947774  1
  K  K10  1  0.447035  0.749852  0.447799  1
  K  K11  1  0.552665  0.749970  0.552656  1
  K  K12  1  0.949200  0.500015  0.949214  1
  K  K13  1  0.947036  0.750147  0.947211  1
  Mo  Mo14  1  0.026567  0.045122  0.176974  1
  Mo  Mo15  1  0.355977  0.037044  0.028346  1
  Mo  Mo16  1  0.250048  0.083723  0.082561  1
  Mo  Mo17  1  0.143084  0.037194  0.323390  1
  Mo  Mo18  1  0.471691  0.044945  0.143731  1
  Mo  Mo19  1  0.028144  0.294782  0.176790  1
  Mo  Mo20  1  0.176896  0.167324  0.357475  1
  Mo  Mo21  1  0.357325  0.287054  0.027287  1
  Mo  Mo22  1  0.082519  0.208229  0.417281  1
  Mo  Mo23  1  0.250214  0.333524  0.082780  1
  Mo  Mo24  1  0.418267  0.207881  0.250051  1
  Mo  Mo25  1  0.142084  0.287322  0.324412  1
  Mo  Mo26  1  0.323319  0.167750  0.472169  1
  Mo  Mo27  1  0.472391  0.294988  0.143598  1
  Mo  Mo28  1  0.675415  0.081669  0.528759  1
  Mo  Mo29  1  0.583033  0.041855  0.749879  1
  Mo  Mo30  1  0.917200  0.041793  0.582869  1
  Mo  Mo31  1  0.028642  0.544899  0.175647  1
  Mo  Mo32  1  0.175440  0.418347  0.355407  1
  Mo  Mo33  1  0.355410  0.536687  0.028675  1
  Mo  Mo34  1  0.823658  0.082149  0.643495  1
  Mo  Mo35  1  0.083036  0.458143  0.417292  1
  Mo  Mo36  1  0.250235  0.583608  0.082722  1
  Mo  Mo37  1  0.417194  0.458213  0.250030  1
  Mo  Mo38  1  0.143604  0.537031  0.323669  1
  Mo  Mo39  1  0.323666  0.417859  0.472066  1
  Mo  Mo40  1  0.473797  0.545475  0.142194  1
  Mo  Mo41  1  0.528150  0.205226  0.855897  1
  Mo  Mo42  1  0.676926  0.332668  0.526773  1
  Mo  Mo43  1  0.857311  0.212956  0.675497  1
  Mo  Mo44  1  0.582521  0.291777  0.750173  1
  Mo  Mo45  1  0.750221  0.166479  0.916862  1
  Mo  Mo46  1  0.918265  0.292117  0.581577  1
  Mo  Mo47  1  0.027326  0.795358  0.175722  1
  Mo  Mo48  1  0.176630  0.668098  0.355984  1
  Mo  Mo49  1  0.642081  0.212685  0.973692  1
  Mo  Mo50  1  0.357499  0.787541  0.026662  1
  Mo  Mo51  1  0.823338  0.332247  0.643157  1
  Mo  Mo52  1  0.972393  0.205026  0.823514  1
  Mo  Mo53  1  0.082856  0.708325  0.416869  1
  Mo  Mo54  1  0.249975  0.834166  0.081634  1
  Mo  Mo55  1  0.417214  0.708022  0.250350  1
  Mo  Mo56  1  0.143593  0.787128  0.323702  1
  Mo  Mo57  1  0.324299  0.667149  0.473569  1
  Mo  Mo58  1  0.472289  0.794962  0.143298  1
  Mo  Mo59  1  0.526546  0.454875  0.857475  1
  Mo  Mo60  1  0.675599  0.582468  0.527399  1
  Mo  Mo61  1  0.855989  0.462950  0.676521  1
  Mo  Mo62  1  0.581642  0.542095  0.749946  1
  Mo  Mo63  1  0.750023  0.416280  0.917464  1
  Mo  Mo64  1  0.916786  0.541875  0.582823  1
  Mo  Mo65  1  0.175607  0.917536  0.357262  1
  Mo  Mo66  1  0.643097  0.462811  0.972130  1
  Mo  Mo67  1  0.823488  0.582005  0.643670  1
  Mo  Mo68  1  0.971683  0.455055  0.823512  1
  Mo  Mo69  1  0.081638  0.957903  0.418321  1
  Mo  Mo70  1  0.416786  0.958129  0.250308  1
  Mo  Mo71  1  0.323518  0.917989  0.471701  1
  Mo  Mo72  1  0.527353  0.704636  0.857151  1
  Mo  Mo73  1  0.676643  0.831895  0.528378  1
  Mo  Mo74  1  0.857484  0.712458  0.676839  1
  Mo  Mo75  1  0.582852  0.791675  0.750164  1
  Mo  Mo76  1  0.749983  0.665835  0.918288  1
  Mo  Mo77  1  0.917207  0.791968  0.582461  1
  Mo  Mo78  1  0.643600  0.712867  0.972219  1
  Mo  Mo79  1  0.824322  0.832847  0.642161  1
  Mo  Mo80  1  0.972275  0.705041  0.823135  1
  Mo  Mo81  1  0.528614  0.955093  0.855256  1
  Mo  Mo82  1  0.855438  0.963305  0.675402  1
  Mo  Mo83  1  0.750210  0.916389  0.917175  1
  Mo  Mo84  1  0.643598  0.962969  0.971787  1
  Mo  Mo85  1  0.973801  0.954515  0.824119  1
  S  S86  1  0.135829  0.000037  0.136265  1
  S  S87  1  0.284575  0.151648  0.016271  1
  S  S88  1  0.363706  0.000032  0.363876  1
  S  S89  1  0.445358  0.173754  0.054718  1
  S  S90  1  0.136178  0.249888  0.136393  1
  S  S91  1  0.121412  0.067171  0.516552  1
  S  S92  1  0.785148  0.099003  0.121066  1
  S  S93  1  0.483403  0.165668  0.215694  1
  S  S94  1  0.249683  0.098272  0.553654  1
  S  S95  1  0.016204  0.165713  0.622107  1
  S  S96  1  0.285140  0.401001  0.017073  1
  S  S97  1  0.946819  0.075974  0.249642  1
  S  S98  1  0.622382  0.182538  0.285150  1
  S  S99  1  0.377417  0.067244  0.715133  1
  S  S100  1  0.363793  0.250008  0.363853  1
  S  S101  1  0.054716  0.173851  0.749985  1
  S  S102  1  0.446815  0.424031  0.053530  1
  S  S103  1  0.983857  0.084458  0.377536  1
  S  S104  1  0.135133  0.500031  0.135112  1
  S  S105  1  0.122394  0.317465  0.515290  1
  S  S106  1  0.750132  0.152305  0.445526  1
  S  S107  1  0.515975  0.084591  0.784575  1
  S  S108  1  0.215085  0.151468  0.877734  1
  S  S109  1  0.784589  0.348360  0.122842  1
  S  S110  1  0.483865  0.415541  0.215362  1
  S  S111  1  0.250130  0.347702  0.554730  1
  S  S112  1  0.877657  0.182748  0.484035  1
  S  S113  1  0.864132  -0.000046  0.863850  1
  S  S114  1  0.015980  0.415413  0.622932  1
  S  S115  1  0.554796  0.076078  0.945478  1
  S  S116  1  0.284870  0.651406  0.016565  1
  S  S117  1  0.945375  0.326253  0.249717  1
  S  S118  1  0.636183  0.250116  0.635932  1
  S  S119  1  0.621415  0.432831  0.285231  1
  S  S120  1  0.377660  0.317260  0.715010  1
  S  S121  1  0.364142  0.500048  0.363657  1
  S  S122  1  0.054777  0.423927  0.749787  1
  S  S123  1  0.715436  0.098446  0.983691  1
  S  S124  1  0.445430  0.673782  0.054719  1
  S  S125  1  0.983403  0.334338  0.378347  1
  S  S126  1  0.136354  0.750104  0.135883  1
  S  S127  1  0.122932  0.567214  0.515841  1
  S  S128  1  0.749693  0.401732  0.446733  1
  S  S129  1  0.516205  0.334293  0.784945  1
  S  S130  1  0.215421  0.401553  0.877483  1
  S  S131  1  0.785059  0.598372  0.122292  1
  S  S132  1  0.483900  0.665655  0.215080  1
  S  S133  1  0.249771  0.597607  0.554834  1
  S  S134  1  0.877407  0.432761  0.484098  1
  S  S135  1  0.863794  0.250006  0.863852  1
  S  S136  1  0.016802  0.665998  0.621147  1
  S  S137  1  0.554722  0.326157  0.945374  1
  S  S138  1  0.285044  0.901626  0.015787  1
  S  S139  1  0.945779  0.576113  0.250082  1
  S  S140  1  0.635824  0.499957  0.636424  1
  S  S141  1  0.622128  0.682725  0.285124  1
  S  S142  1  0.378348  0.567030  0.715485  1
  S  S143  1  0.363977  0.749986  0.363798  1
  S  S144  1  0.053492  0.674283  0.749753  1
  S  S145  1  0.715094  0.348533  0.983600  1
  S  S146  1  0.445761  0.923884  0.054546  1
  S  S147  1  0.984020  0.584518  0.377337  1
  S  S148  1  0.122139  0.817264  0.516046  1
  S  S149  1  0.749985  0.652361  0.445324  1
  S  S150  1  0.515472  0.584396  0.784958  1
  S  S151  1  0.215249  0.651501  0.877593  1
  S  S152  1  0.784884  0.848592  0.122183  1
  S  S153  1  0.484019  0.915476  0.215419  1
  S  S154  1  0.249983  0.847633  0.554777  1
  S  S155  1  0.877362  0.682777  0.484197  1
  S  S156  1  0.863693  0.499973  0.863994  1
  S  S157  1  0.015475  0.915605  0.622536  1
  S  S158  1  0.554451  0.576181  0.945581  1
  S  S159  1  0.945442  0.826210  0.249865  1
  S  S160  1  0.636361  0.749884  0.636316  1
  S  S161  1  0.622925  0.932785  0.284699  1
  S  S162  1  0.377367  0.817215  0.715320  1
  S  S163  1  0.054438  0.923816  0.750311  1
  S  S164  1  0.715774  0.598847  0.983041  1
  S  S165  1  0.983901  0.834337  0.377716  1
  S  S166  1  0.749779  0.902390  0.445267  1
  S  S167  1  0.516795  0.833999  0.785146  1
  S  S168  1  0.215760  0.901148  0.878444  1
  S  S169  1  0.878346  0.932972  0.483603  1
  S  S170  1  0.863980  0.750008  0.863750  1
  S  S171  1  0.553503  0.825713  0.946894  1
  S  S172  1  0.635121  0.999968  0.635233  1
  S  S173  1  0.715266  0.848494  0.983601  1
