# generated using pymatgen
data_FeSeBr7
_symmetry_space_group_name_H-M   'P 1'
_cell_length_a   6.75377056
_cell_length_b   6.86173001
_cell_length_c   14.73510965
_cell_angle_alpha   101.62096088
_cell_angle_beta   90.00000000
_cell_angle_gamma   90.00000000
_symmetry_Int_Tables_number   1
_chemical_formula_structural   FeSeBr7
_chemical_formula_sum   'Fe2 Se2 Br14'
_cell_volume   668.86498248
_cell_formula_units_Z   2
loop_
 _symmetry_equiv_pos_site_id
 _symmetry_equiv_pos_as_xyz
  1  'x, y, z'
loop_
 _atom_site_type_symbol
 _atom_site_label
 _atom_site_symmetry_multiplicity
 _atom_site_fract_x
 _atom_site_fract_y
 _atom_site_fract_z
 _atom_site_occupancy
  Fe  Fe0  1  0.501495  0.553597  0.140185  1
  Fe  Fe1  1  0.498505  0.553597  0.640185  1
  Se  Se2  1  0.915049  0.846634  0.303592  1
  Se  Se3  1  0.084951  0.846634  0.803592  1
  Br  Br4  1  0.154884  0.527797  0.133279  1
  Br  Br5  1  0.874589  0.721775  0.907409  1
  Br  Br6  1  0.309171  0.041511  0.910168  1
  Br  Br7  1  0.690829  0.041511  0.410168  1
  Br  Br8  1  0.388441  0.880657  0.641140  1
  Br  Br9  1  0.376849  0.483758  0.781061  1
  Br  Br10  1  0.611559  0.880657  0.141140  1
  Br  Br11  1  0.891266  0.105949  0.763388  1
  Br  Br12  1  0.642679  0.335022  0.012578  1
  Br  Br13  1  0.623151  0.483758  0.281061  1
  Br  Br14  1  0.357321  0.335022  0.512578  1
  Br  Br15  1  0.108734  0.105949  0.263388  1
  Br  Br16  1  0.125411  0.721775  0.407409  1
  Br  Br17  1  0.845116  0.527797  0.633279  1
