# generated using pymatgen
data_H5IO6
_symmetry_space_group_name_H-M   'P 1'
_cell_length_a   5.27255692
_cell_length_b   19.29823612
_cell_length_c   5.03167516
_cell_angle_alpha   89.98678991
_cell_angle_beta   111.53050634
_cell_angle_gamma   90.04315103
_symmetry_Int_Tables_number   1
_chemical_formula_structural   H5IO6
_chemical_formula_sum   'H20 I4 O24'
_cell_volume   476.25342244
_cell_formula_units_Z   4
loop_
 _symmetry_equiv_pos_site_id
 _symmetry_equiv_pos_as_xyz
  1  'x, y, z'
loop_
 _atom_site_type_symbol
 _atom_site_label
 _atom_site_symmetry_multiplicity
 _atom_site_fract_x
 _atom_site_fract_y
 _atom_site_fract_z
 _atom_site_occupancy
  H  H0  1  0.161763  0.504718  0.817795  1
  H  H1  1  0.659869  0.995056  0.317549  1
  H  H2  1  0.840167  0.494702  0.190343  1
  H  H3  1  0.339925  0.005286  0.690649  1
  H  H4  1  0.373840  0.564444  0.507297  1
  H  H5  1  0.873178  0.935786  0.007158  1
  H  H6  1  0.630371  0.435705  0.492727  1
  H  H7  1  0.130195  0.064353  0.992596  1
  H  H8  1  0.324534  0.706470  0.415306  1
  H  H9  1  0.825970  0.795020  0.922626  1
  H  H10  1  0.841762  0.264945  0.753040  1
  H  H11  1  0.341507  0.235010  0.252603  1
  H  H12  1  0.604784  0.635931  0.023753  1
  H  H13  1  0.104088  0.864194  0.522758  1
  H  H14  1  0.390720  0.366602  0.976265  1
  H  H15  1  0.890702  0.133322  0.476120  1
  H  H16  1  0.986411  0.680532  0.585085  1
  H  H17  1  0.484504  0.818950  0.086084  1
  H  H18  1  0.008316  0.318050  0.417885  1
  H  H19  1  0.508394  0.181938  0.917756  1
  I  I20  1  0.155423  0.617868  0.038295  1
  I  I21  1  0.655166  0.881884  0.538967  1
  I  I22  1  0.842217  0.381691  0.963271  1
  I  I23  1  0.342147  0.118272  0.463225  1
  O  O24  1  0.199641  0.553390  0.764921  1
  O  O25  1  0.698463  0.946429  0.265030  1
  O  O26  1  0.799509  0.445972  0.238795  1
  O  O27  1  0.299018  0.053972  0.738751  1
  O  O28  1  0.861501  0.575398  0.074275  1
  O  O29  1  0.361661  0.924465  0.574759  1
  O  O30  1  0.136533  0.425471  0.933531  1
  O  O31  1  0.636093  0.074420  0.433423  1
  O  O32  1  0.431519  0.568130  0.340122  1
  O  O33  1  0.932263  0.931369  0.841150  1
  O  O34  1  0.572512  0.431828  0.660111  1
  O  O35  1  0.072326  0.068070  0.160002  1
  O  O36  1  0.140511  0.687846  0.317794  1
  O  O37  1  0.640383  0.811878  0.818543  1
  O  O38  1  0.865704  0.311814  0.689203  1
  O  O39  1  0.366003  0.188130  0.189245  1
  O  O40  1  0.448506  0.669549  0.990845  1
  O  O41  1  0.947649  0.830500  0.489483  1
  O  O42  1  0.544502  0.331866  0.007822  1
  O  O43  1  0.044706  0.168049  0.507811  1
  O  O44  1  0.914531  0.676194  0.742438  1
  O  O45  1  0.413616  0.823251  0.244131  1
  O  O46  1  0.077392  0.321290  0.258295  1
  O  O47  1  0.577736  0.178593  0.758386  1
