# generated using pymatgen
data_CsCaH3
_symmetry_space_group_name_H-M   'P 1'
_cell_length_a   6.53774715
_cell_length_b   6.53224334
_cell_length_c   9.24335853
_cell_angle_alpha   90.00000000
_cell_angle_beta   90.00000000
_cell_angle_gamma   90.00000000
_symmetry_Int_Tables_number   1
_chemical_formula_structural   CsCaH3
_chemical_formula_sum   'Cs4 Ca4 H12'
_cell_volume   394.74830468
_cell_formula_units_Z   4
loop_
 _symmetry_equiv_pos_site_id
 _symmetry_equiv_pos_as_xyz
  1  'x, y, z'
loop_
 _atom_site_type_symbol
 _atom_site_label
 _atom_site_symmetry_multiplicity
 _atom_site_fract_x
 _atom_site_fract_y
 _atom_site_fract_z
 _atom_site_occupancy
  Cs  Cs0  1  0.502681  0.500200  0.250000  1
  Cs  Cs1  1  0.997319  0.000200  0.250000  1
  Cs  Cs2  1  0.497319  0.499800  0.750000  1
  Cs  Cs3  1  0.002681  0.999800  0.750000  1
  Ca  Ca4  1  0.000000  0.500000  0.000000  1
  Ca  Ca5  1  0.500000  0.000000  0.500000  1
  Ca  Ca6  1  0.000000  0.500000  0.500000  1
  Ca  Ca7  1  0.500000  0.000000  0.000000  1
  H  H8  1  0.997603  0.500903  0.250000  1
  H  H9  1  0.502397  0.000903  0.250000  1
  H  H10  1  0.002397  0.499097  0.750000  1
  H  H11  1  0.497603  0.999097  0.750000  1
  H  H12  1  0.748406  0.748394  0.999790  1
  H  H13  1  0.751594  0.248394  0.500210  1
  H  H14  1  0.251594  0.251606  0.499790  1
  H  H15  1  0.248406  0.751606  0.000210  1
  H  H16  1  0.251594  0.251606  0.000210  1
  H  H17  1  0.248406  0.751606  0.499790  1
  H  H18  1  0.748406  0.748394  0.500210  1
  H  H19  1  0.751594  0.248394  0.999790  1
