# generated using pymatgen
data_La4Ag2Se7
_symmetry_space_group_name_H-M   'P 1'
_cell_length_a   7.62605994
_cell_length_b   7.99324956
_cell_length_c   15.44128143
_cell_angle_alpha   110.86782655
_cell_angle_beta   108.94499961
_cell_angle_gamma   109.07992918
_symmetry_Int_Tables_number   1
_chemical_formula_structural   La4Ag2Se7
_chemical_formula_sum   'La8 Ag4 Se14'
_cell_volume   720.07164839
_cell_formula_units_Z   2
loop_
 _symmetry_equiv_pos_site_id
 _symmetry_equiv_pos_as_xyz
  1  'x, y, z'
loop_
 _atom_site_type_symbol
 _atom_site_label
 _atom_site_symmetry_multiplicity
 _atom_site_fract_x
 _atom_site_fract_y
 _atom_site_fract_z
 _atom_site_occupancy
  La  La0  1  0.130933  0.753826  0.954398  1
  La  La1  1  0.249327  0.634689  0.686435  1
  La  La2  1  0.376457  0.261819  0.813565  1
  La  La3  1  0.594480  0.346312  0.603068  1
  La  La4  1  0.722136  0.845029  0.545602  1
  La  La5  1  0.888343  0.140175  0.896932  1
  La  La6  1  0.604247  0.367974  0.123561  1
  La  La7  1  0.857126  0.120853  0.376439  1
  Ag  Ag8  1  0.124298  0.758556  0.439646  1
  Ag  Ag9  1  0.274026  0.634649  0.187791  1
  Ag  Ag10  1  0.398443  0.259066  0.312209  1
  Ag  Ag11  1  0.745006  0.879264  0.060354  1
  Se  Se12  1  0.147947  0.158021  0.579330  1
  Se  Se13  1  0.311298  0.461000  0.463843  1
  Se  Se14  1  0.650930  0.639894  0.818330  1
  Se  Se15  1  0.489286  0.999361  0.920670  1
  Se  Se16  1  0.514270  0.003234  0.681670  1
  Se  Se17  1  0.136388  0.147155  0.098260  1
  Se  Se18  1  0.351083  0.499741  0.003584  1
  Se  Se19  1  0.991868  0.859164  0.746680  1
  Se  Se20  1  0.714913  0.686757  0.326811  1
  Se  Se21  1  0.439869  0.950635  0.401740  1
  Se  Se22  1  0.843916  0.492573  0.496416  1
  Se  Se23  1  0.998508  0.365804  0.753320  1
  Se  Se24  1  0.561290  0.033135  0.173189  1
  Se  Se25  1  0.883612  0.533314  0.036157  1
