# generated using pymatgen
data_K9(NbAs3)2
_symmetry_space_group_name_H-M   'P 1'
_cell_length_a   9.34210223
_cell_length_b   9.46802055
_cell_length_c   12.84298941
_cell_angle_alpha   96.30525526
_cell_angle_beta   90.00000000
_cell_angle_gamma   90.00000000
_symmetry_Int_Tables_number   1
_chemical_formula_structural   K9(NbAs3)2
_chemical_formula_sum   'K18 Nb4 As12'
_cell_volume   1129.10636812
_cell_formula_units_Z   2
loop_
 _symmetry_equiv_pos_site_id
 _symmetry_equiv_pos_as_xyz
  1  'x, y, z'
loop_
 _atom_site_type_symbol
 _atom_site_label
 _atom_site_symmetry_multiplicity
 _atom_site_fract_x
 _atom_site_fract_y
 _atom_site_fract_z
 _atom_site_occupancy
  K  K0  1  0.088657  0.414427  0.166113  1
  K  K1  1  0.170635  0.068131  0.586545  1
  K  K2  1  0.190574  0.375577  0.892893  1
  K  K3  1  0.218346  0.817801  0.300320  1
  K  K4  1  0.281654  0.817801  0.800320  1
  K  K5  1  0.309426  0.375577  0.392893  1
  K  K6  1  0.329365  0.068131  0.086545  1
  K  K7  1  0.411343  0.414427  0.666113  1
  K  K8  1  0.553854  0.986166  0.593886  1
  K  K9  1  0.584289  0.592980  0.336189  1
  K  K10  1  0.674261  0.930018  0.904712  1
  K  K11  1  0.694165  0.604291  0.609391  1
  K  K12  1  0.680109  0.197494  0.217552  1
  K  K13  1  0.819891  0.197494  0.717552  1
  K  K14  1  0.805835  0.604291  0.109391  1
  K  K15  1  0.825739  0.930018  0.404712  1
  K  K16  1  0.915711  0.592980  0.836189  1
  K  K17  1  0.946146  0.986166  0.093886  1
  Nb  Nb18  1  0.075328  0.656630  0.554035  1
  Nb  Nb19  1  0.424672  0.656630  0.054035  1
  Nb  Nb20  1  0.579360  0.342858  0.945500  1
  Nb  Nb21  1  0.920640  0.342858  0.445500  1
  As  As22  1  0.056350  0.410496  0.620547  1
  As  As23  1  0.047646  0.155970  0.324647  1
  As  As24  1  0.164489  0.716786  0.032772  1
  As  As25  1  0.335511  0.716786  0.532772  1
  As  As26  1  0.452354  0.155970  0.824647  1
  As  As27  1  0.443650  0.410496  0.120547  1
  As  As28  1  0.556301  0.589233  0.878672  1
  As  As29  1  0.561995  0.845429  0.166180  1
  As  As30  1  0.665074  0.277514  0.477146  1
  As  As31  1  0.834926  0.277514  0.977146  1
  As  As32  1  0.938005  0.845429  0.666180  1
  As  As33  1  0.943699  0.589233  0.378672  1
