# generated using pymatgen
data_Ca(HO)2
_symmetry_space_group_name_H-M   'P 1'
_cell_length_a   3.86914248
_cell_length_b   3.86912860
_cell_length_c   4.62297737
_cell_angle_alpha   89.99999994
_cell_angle_beta   89.99756726
_cell_angle_gamma   119.99987521
_symmetry_Int_Tables_number   1
_chemical_formula_structural   Ca(HO)2
_chemical_formula_sum   'Ca1 H2 O2'
_cell_volume   59.93504455
_cell_formula_units_Z   1
loop_
 _symmetry_equiv_pos_site_id
 _symmetry_equiv_pos_as_xyz
  1  'x, y, z'
loop_
 _atom_site_type_symbol
 _atom_site_label
 _atom_site_symmetry_multiplicity
 _atom_site_fract_x
 _atom_site_fract_y
 _atom_site_fract_z
 _atom_site_occupancy
  Ca  Ca0  1  0.000008  0.000004  0.975024  1
  H  H1  1  0.333342  0.666672  0.007838  1
  H  H2  1  0.666632  0.333316  0.419131  1
  O  O3  1  0.333357  0.666678  0.794976  1
  O  O4  1  0.666659  0.333330  0.207890  1
