# generated using pymatgen
data_Cr3GaS6
_symmetry_space_group_name_H-M   'P 1'
_cell_length_a   7.04611383
_cell_length_b   7.04581742
_cell_length_c   63.30641853
_cell_angle_alpha   60.05036744
_cell_angle_beta   60.05112969
_cell_angle_gamma   60.11205478
_symmetry_Int_Tables_number   1
_chemical_formula_structural   Cr3GaS6
_chemical_formula_sum   'Cr36 Ga12 S72'
_cell_volume   2225.94019653
_cell_formula_units_Z   12
loop_
 _symmetry_equiv_pos_site_id
 _symmetry_equiv_pos_as_xyz
  1  'x, y, z'
loop_
 _atom_site_type_symbol
 _atom_site_label
 _atom_site_symmetry_multiplicity
 _atom_site_fract_x
 _atom_site_fract_y
 _atom_site_fract_z
 _atom_site_occupancy
  Cr  Cr0  1  0.114854  0.633017  0.068747  1
  Cr  Cr1  1  0.632999  0.114907  0.068744  1
  Cr  Cr2  1  0.622787  0.622779  0.014690  1
  Cr  Cr3  1  0.104486  0.633140  0.181028  1
  Cr  Cr4  1  0.633509  0.633514  0.068708  1
  Cr  Cr5  1  0.637963  0.637953  0.120649  1
  Cr  Cr6  1  0.633139  0.104454  0.181027  1
  Cr  Cr7  1  0.119911  0.629847  0.291155  1
  Cr  Cr8  1  0.633193  0.633184  0.181029  1
  Cr  Cr9  1  0.629876  0.119928  0.291146  1
  Cr  Cr10  1  0.634083  0.634089  0.233078  1
  Cr  Cr11  1  0.125094  0.625024  0.402775  1
  Cr  Cr12  1  0.629876  0.629877  0.291148  1
  Cr  Cr13  1  0.625031  0.125088  0.402775  1
  Cr  Cr14  1  0.624600  0.624603  0.347346  1
  Cr  Cr15  1  0.125091  0.625174  0.513845  1
  Cr  Cr16  1  0.624883  0.624886  0.402782  1
  Cr  Cr17  1  0.625194  0.125084  0.513846  1
  Cr  Cr18  1  0.625010  0.624998  0.458327  1
  Cr  Cr19  1  0.124811  0.624578  0.625123  1
  Cr  Cr20  1  0.625075  0.625057  0.513858  1
  Cr  Cr21  1  0.624578  0.124798  0.625125  1
  Cr  Cr22  1  0.625045  0.625043  0.569426  1
  Cr  Cr23  1  0.110814  0.625629  0.737554  1
  Cr  Cr24  1  0.624587  0.624575  0.625125  1
  Cr  Cr25  1  0.625617  0.110831  0.737556  1
  Cr  Cr26  1  0.624200  0.624196  0.680843  1
  Cr  Cr27  1  0.098117  0.631591  0.848299  1
  Cr  Cr28  1  0.625490  0.625470  0.737575  1
  Cr  Cr29  1  0.631597  0.098216  0.848295  1
  Cr  Cr30  1  0.630938  0.630930  0.789985  1
  Cr  Cr31  1  0.100793  0.629215  0.960086  1
  Cr  Cr32  1  0.634440  0.634444  0.848052  1
  Cr  Cr33  1  0.632054  0.632032  0.899807  1
  Cr  Cr34  1  0.629204  0.100783  0.960086  1
  Cr  Cr35  1  0.629026  0.629028  0.960160  1
  Ga  Ga36  1  0.249708  0.249721  0.138950  1
  Ga  Ga37  1  0.251849  0.251870  0.249351  1
  Ga  Ga38  1  0.000567  0.000525  0.333170  1
  Ga  Ga39  1  0.250809  0.250839  0.360840  1
  Ga  Ga40  1  0.000203  0.000176  0.444410  1
  Ga  Ga41  1  0.249660  0.249680  0.472314  1
  Ga  Ga42  1  0.000320  0.000288  0.555482  1
  Ga  Ga43  1  0.999128  0.999091  0.666997  1
  Ga  Ga44  1  0.249800  0.249818  0.583367  1
  Ga  Ga45  1  0.248049  0.248062  0.695062  1
  Ga  Ga46  1  0.248309  0.248312  0.806214  1
  Ga  Ga47  1  0.249651  0.249652  0.916697  1
  S  S48  1  0.385011  0.385016  0.043186  1
  S  S49  1  0.384601  0.384590  0.094019  1
  S  S50  1  0.385157  0.841050  0.043210  1
  S  S51  1  0.841058  0.385166  0.043209  1
  S  S52  1  0.385225  0.385187  0.153961  1
  S  S53  1  0.400805  0.866633  0.096203  1
  S  S54  1  0.866801  0.866803  0.044402  1
  S  S55  1  0.866657  0.400775  0.096202  1
  S  S56  1  0.384754  0.384727  0.205086  1
  S  S57  1  0.385163  0.844080  0.153955  1
  S  S58  1  0.844086  0.385133  0.153957  1
  S  S59  1  0.866663  0.866655  0.096187  1
  S  S60  1  0.384654  0.384716  0.265084  1
  S  S61  1  0.402895  0.865035  0.207446  1
  S  S62  1  0.865033  0.402923  0.207444  1
  S  S63  1  0.384813  0.384851  0.316162  1
  S  S64  1  0.384575  0.845070  0.265071  1
  S  S65  1  0.866342  0.866325  0.155671  1
  S  S66  1  0.845080  0.384639  0.265064  1
  S  S67  1  0.865035  0.865052  0.207455  1
  S  S68  1  0.384932  0.384919  0.376163  1
  S  S69  1  0.404875  0.863930  0.318593  1
  S  S70  1  0.863911  0.404864  0.318595  1
  S  S71  1  0.384991  0.385013  0.427193  1
  S  S72  1  0.865018  0.864940  0.267221  1
  S  S73  1  0.384771  0.845113  0.376144  1
  S  S74  1  0.845116  0.384775  0.376144  1
  S  S75  1  0.863742  0.863769  0.318593  1
  S  S76  1  0.385102  0.385090  0.487241  1
  S  S77  1  0.405198  0.864974  0.429442  1
  S  S78  1  0.864991  0.405201  0.429439  1
  S  S79  1  0.385096  0.385094  0.538272  1
  S  S80  1  0.864919  0.864895  0.378357  1
  S  S81  1  0.385109  0.844874  0.487221  1
  S  S82  1  0.844889  0.385094  0.487222  1
  S  S83  1  0.864835  0.864812  0.429441  1
  S  S84  1  0.385104  0.385082  0.598375  1
  S  S85  1  0.405299  0.865091  0.540508  1
  S  S86  1  0.865085  0.405292  0.540507  1
  S  S87  1  0.385189  0.385190  0.649401  1
  S  S88  1  0.864919  0.864908  0.489466  1
  S  S89  1  0.385005  0.844653  0.598371  1
  S  S90  1  0.864986  0.865012  0.540498  1
  S  S91  1  0.844658  0.384989  0.598370  1
  S  S92  1  0.385225  0.385234  0.709286  1
  S  S93  1  0.405048  0.865184  0.651625  1
  S  S94  1  0.865194  0.405036  0.651624  1
  S  S95  1  0.385018  0.385056  0.760543  1
  S  S96  1  0.864774  0.864773  0.600641  1
  S  S97  1  0.385076  0.846238  0.709270  1
  S  S98  1  0.846266  0.385068  0.709266  1
  S  S99  1  0.865127  0.865136  0.651612  1
  S  S100  1  0.385617  0.385651  0.820486  1
  S  S101  1  0.404995  0.865765  0.762577  1
  S  S102  1  0.865791  0.404980  0.762577  1
  S  S103  1  0.384375  0.846556  0.820527  1
  S  S104  1  0.385698  0.385708  0.871472  1
  S  S105  1  0.865397  0.865371  0.711535  1
  S  S106  1  0.846591  0.384375  0.820525  1
  S  S107  1  0.866554  0.866568  0.762548  1
  S  S108  1  0.385397  0.385400  0.931624  1
  S  S109  1  0.396900  0.869013  0.874282  1
  S  S110  1  0.868943  0.396840  0.874289  1
  S  S111  1  0.389713  0.389675  0.981231  1
  S  S112  1  0.385918  0.844385  0.931597  1
  S  S113  1  0.868937  0.869030  0.821897  1
  S  S114  1  0.844400  0.385925  0.931594  1
  S  S115  1  0.865965  0.866095  0.873925  1
  S  S116  1  0.400763  0.865798  0.985310  1
  S  S117  1  0.865797  0.400753  0.985308  1
  S  S118  1  0.866577  0.866568  0.933362  1
  S  S119  1  0.865780  0.865821  0.985281  1
