# generated using pymatgen
data_Cd(HO)2
_symmetry_space_group_name_H-M   'P 1'
_cell_length_a   3.83976922
_cell_length_b   3.83987353
_cell_length_c   4.44139318
_cell_angle_alpha   90.00000001
_cell_angle_beta   90.00294078
_cell_angle_gamma   120.00089494
_symmetry_Int_Tables_number   1
_chemical_formula_structural   Cd(HO)2
_chemical_formula_sum   'Cd1 H2 O2'
_cell_volume   56.71108813
_cell_formula_units_Z   1
loop_
 _symmetry_equiv_pos_site_id
 _symmetry_equiv_pos_as_xyz
  1  'x, y, z'
loop_
 _atom_site_type_symbol
 _atom_site_label
 _atom_site_symmetry_multiplicity
 _atom_site_fract_x
 _atom_site_fract_y
 _atom_site_fract_z
 _atom_site_occupancy
  Cd  Cd0  1  0.999992  0.999996  0.987300  1
  H  H1  1  0.666679  0.333339  0.008077  1
  H  H2  1  0.333361  0.666681  0.431885  1
  O  O3  1  0.666632  0.333316  0.786194  1
  O  O4  1  0.333337  0.666668  0.211894  1
