# generated using pymatgen
data_Ce3(Si3Pd10)2
_symmetry_space_group_name_H-M   'P 1'
_cell_length_a   8.86763299
_cell_length_b   8.86115788
_cell_length_c   8.86576806
_cell_angle_alpha   59.96916169
_cell_angle_beta   59.97689996
_cell_angle_gamma   59.96291895
_symmetry_Int_Tables_number   1
_chemical_formula_structural   Ce3(Si3Pd10)2
_chemical_formula_sum   'Ce3 Si6 Pd20'
_cell_volume   492.26690350
_cell_formula_units_Z   1
loop_
 _symmetry_equiv_pos_site_id
 _symmetry_equiv_pos_as_xyz
  1  'x, y, z'
loop_
 _atom_site_type_symbol
 _atom_site_label
 _atom_site_symmetry_multiplicity
 _atom_site_fract_x
 _atom_site_fract_y
 _atom_site_fract_z
 _atom_site_occupancy
  Ce  Ce0  1  0.749913  0.750508  0.749974  1
  Ce  Ce1  1  0.250166  0.249516  0.250020  1
  Ce  Ce2  1  0.000039  0.000043  -0.000001  1
  Si  Si3  1  0.251988  0.748035  0.251983  1
  Si  Si4  1  0.252005  0.251936  0.748045  1
  Si  Si5  1  0.251977  0.748025  0.747993  1
  Si  Si6  1  0.747975  0.251984  0.252030  1
  Si  Si7  1  0.748008  0.748079  0.251925  1
  Si  Si8  1  0.748018  0.251917  0.748051  1
  Pd  Pd9  1  0.499628  0.499667  0.848929  1
  Pd  Pd10  1  0.875889  0.876267  0.876037  1
  Pd  Pd11  1  0.124170  0.123859  0.124086  1
  Pd  Pd12  1  0.124075  0.123912  0.627818  1
  Pd  Pd13  1  0.499653  0.499633  0.151721  1
  Pd  Pd14  1  0.151844  0.848675  0.499763  1
  Pd  Pd15  1  0.875998  0.876167  0.371969  1
  Pd  Pd16  1  0.848942  0.499665  0.499675  1
  Pd  Pd17  1  0.151716  0.499631  0.499625  1
  Pd  Pd18  1  0.627892  0.123833  0.124040  1
  Pd  Pd19  1  0.848908  0.499619  0.151791  1
  Pd  Pd20  1  0.124077  0.627628  0.124119  1
  Pd  Pd21  1  0.499715  0.848630  0.151907  1
  Pd  Pd22  1  0.848875  0.152032  0.499521  1
  Pd  Pd23  1  0.499552  0.151957  0.499517  1
  Pd  Pd24  1  0.499713  0.848702  0.499772  1
  Pd  Pd25  1  0.371967  0.876187  0.876038  1
  Pd  Pd26  1  0.151768  0.499690  0.848891  1
  Pd  Pd27  1  0.875957  0.372156  0.875967  1
  Pd  Pd28  1  0.499574  0.152048  0.848794  1
