# generated using pymatgen
data_Ca(H8O5)2
_symmetry_space_group_name_H-M   'P 1'
_cell_length_a   6.20947457
_cell_length_b   6.21322616
_cell_length_c   10.94680821
_cell_angle_alpha   90.00000000
_cell_angle_beta   89.94575743
_cell_angle_gamma   90.00000000
_symmetry_Int_Tables_number   1
_chemical_formula_structural   Ca(H8O5)2
_chemical_formula_sum   'Ca2 H32 O20'
_cell_volume   422.33719338
_cell_formula_units_Z   2
loop_
 _symmetry_equiv_pos_site_id
 _symmetry_equiv_pos_as_xyz
  1  'x, y, z'
loop_
 _atom_site_type_symbol
 _atom_site_label
 _atom_site_symmetry_multiplicity
 _atom_site_fract_x
 _atom_site_fract_y
 _atom_site_fract_z
 _atom_site_occupancy
  Ca  Ca0  1  0.997195  0.002723  0.248727  1
  Ca  Ca1  1  0.997195  0.997277  0.748727  1
  H  H2  1  0.275260  0.379781  0.352687  1
  H  H3  1  0.031033  0.446339  0.368666  1
  H  H4  1  0.724754  0.618052  0.351743  1
  H  H5  1  0.868046  0.698973  0.464114  1
  H  H6  1  0.556334  0.032801  0.368190  1
  H  H7  1  0.621293  0.278909  0.352574  1
  H  H8  1  0.376840  0.737304  0.341034  1
  H  H9  1  0.302139  0.866214  0.459523  1
  H  H10  1  0.724754  0.381948  0.851743  1
  H  H11  1  0.868046  0.301027  0.964114  1
  H  H12  1  0.275260  0.620219  0.852687  1
  H  H13  1  0.031033  0.553661  0.868666  1
  H  H14  1  0.376840  0.262696  0.841034  1
  H  H15  1  0.302139  0.133786  0.959523  1
  H  H16  1  0.621293  0.721091  0.852574  1
  H  H17  1  0.556334  0.967199  0.868190  1
  H  H18  1  0.969258  0.555142  0.631475  1
  H  H19  1  0.723920  0.621279  0.646566  1
  H  H20  1  0.274370  0.383958  0.646822  1
  H  H21  1  0.131178  0.300572  0.535666  1
  H  H22  1  0.441751  0.968583  0.629643  1
  H  H23  1  0.379577  0.722927  0.645955  1
  H  H24  1  0.618619  0.274535  0.647479  1
  H  H25  1  0.698563  0.130223  0.535549  1
  H  H26  1  0.274370  0.616042  0.146822  1
  H  H27  1  0.131178  0.699428  0.035666  1
  H  H28  1  0.969258  0.444858  0.131475  1
  H  H29  1  0.723920  0.378721  0.146566  1
  H  H30  1  0.618619  0.725465  0.147479  1
  H  H31  1  0.698563  0.869776  0.035549  1
  H  H32  1  0.379577  0.277073  0.145955  1
  H  H33  1  0.441751  0.031417  0.129643  1
  O  O34  1  0.499034  0.502277  0.316243  1
  O  O35  1  0.499034  0.497723  0.816243  1
  O  O36  1  0.501598  0.502071  0.679858  1
  O  O37  1  0.501598  0.497929  0.179858  1
  O  O38  1  0.127608  0.318312  0.374615  1
  O  O39  1  0.871048  0.682154  0.373429  1
  O  O40  1  0.682939  0.131542  0.374995  1
  O  O41  1  0.316324  0.882500  0.368098  1
  O  O42  1  0.871048  0.317846  0.873429  1
  O  O43  1  0.127608  0.681688  0.874615  1
  O  O44  1  0.316324  0.117500  0.868098  1
  O  O45  1  0.682939  0.868458  0.874995  1
  O  O46  1  0.871992  0.682534  0.625262  1
  O  O47  1  0.128474  0.318828  0.626305  1
  O  O48  1  0.316150  0.869285  0.621782  1
  O  O49  1  0.680226  0.127070  0.626245  1
  O  O50  1  0.128474  0.681172  0.126305  1
  O  O51  1  0.871992  0.317466  0.125262  1
  O  O52  1  0.680226  0.872930  0.126245  1
  O  O53  1  0.316150  0.130715  0.121782  1
