# generated using pymatgen
data_Ag8Ge3O10
_symmetry_space_group_name_H-M   'P 1'
_cell_length_a   10.93872807
_cell_length_b   12.35788381
_cell_length_c   18.86769407
_cell_angle_alpha   92.24431856
_cell_angle_beta   90.00000000
_cell_angle_gamma   90.00000000
_symmetry_Int_Tables_number   1
_chemical_formula_structural   Ag8Ge3O10
_chemical_formula_sum   'Ag64 Ge24 O80'
_cell_volume   2548.56957987
_cell_formula_units_Z   8
loop_
 _symmetry_equiv_pos_site_id
 _symmetry_equiv_pos_as_xyz
  1  'x, y, z'
loop_
 _atom_site_type_symbol
 _atom_site_label
 _atom_site_symmetry_multiplicity
 _atom_site_fract_x
 _atom_site_fract_y
 _atom_site_fract_z
 _atom_site_occupancy
  Ag  Ag0  1  0.637923  0.778467  0.947970  1
  Ag  Ag1  1  0.618275  0.656813  0.387480  1
  Ag  Ag2  1  0.637843  0.529251  0.030367  1
  Ag  Ag3  1  0.606764  0.434527  0.475323  1
  Ag  Ag4  1  0.112811  0.661572  0.189527  1
  Ag  Ag5  1  0.891515  0.294409  0.431561  1
  Ag  Ag6  1  0.138718  0.195566  0.377600  1
  Ag  Ag7  1  0.362157  0.529251  0.530367  1
  Ag  Ag8  1  0.612614  0.060008  0.218240  1
  Ag  Ag9  1  0.393236  0.434527  0.975323  1
  Ag  Ag10  1  0.650584  0.353469  0.300868  1
  Ag  Ag11  1  0.387385  0.060008  0.718240  1
  Ag  Ag12  1  0.885277  0.154851  0.675689  1
  Ag  Ag13  1  0.887189  0.661572  0.689527  1
  Ag  Ag14  1  0.142300  0.707146  0.376551  1
  Ag  Ag15  1  0.620313  0.239762  0.755479  1
  Ag  Ag16  1  0.390259  0.244039  0.431642  1
  Ag  Ag17  1  0.393577  0.563105  0.728635  1
  Ag  Ag18  1  0.858186  0.565632  0.522107  1
  Ag  Ag19  1  0.363288  0.872105  0.820009  1
  Ag  Ag20  1  0.866875  0.000377  0.151637  1
  Ag  Ag21  1  0.381725  0.656813  0.887480  1
  Ag  Ag22  1  0.351462  0.154533  0.883876  1
  Ag  Ag23  1  0.362077  0.778467  0.447970  1
  Ag  Ag24  1  0.136886  0.851810  0.086817  1
  Ag  Ag25  1  0.627644  0.946732  0.486881  1
  Ag  Ag26  1  0.882740  0.482079  0.147389  1
  Ag  Ag27  1  0.349416  0.353469  0.800868  1
  Ag  Ag28  1  0.632151  0.720884  0.754854  1
  Ag  Ag29  1  0.640707  0.014447  0.031449  1
  Ag  Ag30  1  0.108485  0.294409  0.931561  1
  Ag  Ag31  1  0.879523  0.067913  0.517345  1
  Ag  Ag32  1  0.878278  0.774611  0.420877  1
  Ag  Ag33  1  0.372356  0.946732  0.986881  1
  Ag  Ag34  1  0.636712  0.872105  0.320009  1
  Ag  Ag35  1  0.126057  0.225781  0.738137  1
  Ag  Ag36  1  0.376007  0.494025  0.170592  1
  Ag  Ag37  1  0.355676  0.959151  0.145004  1
  Ag  Ag38  1  0.367849  0.720884  0.254854  1
  Ag  Ag39  1  0.153280  0.362705  0.104642  1
  Ag  Ag40  1  0.117260  0.482079  0.647389  1
  Ag  Ag41  1  0.609741  0.244039  0.931642  1
  Ag  Ag42  1  0.133125  0.000377  0.651637  1
  Ag  Ag43  1  0.648538  0.154533  0.383876  1
  Ag  Ag44  1  0.863114  0.851810  0.586817  1
  Ag  Ag45  1  0.886833  0.477105  0.974346  1
  Ag  Ag46  1  0.141814  0.565632  0.022107  1
  Ag  Ag47  1  0.873943  0.225781  0.238137  1
  Ag  Ag48  1  0.606423  0.563105  0.228635  1
  Ag  Ag49  1  0.114723  0.154851  0.175689  1
  Ag  Ag50  1  0.644324  0.959151  0.645004  1
  Ag  Ag51  1  0.359293  0.014447  0.531449  1
  Ag  Ag52  1  0.846720  0.362705  0.604642  1
  Ag  Ag53  1  0.120477  0.067913  0.017345  1
  Ag  Ag54  1  0.623993  0.494025  0.670592  1
  Ag  Ag55  1  0.861852  0.760854  0.261142  1
  Ag  Ag56  1  0.121722  0.774611  0.920877  1
  Ag  Ag57  1  0.379687  0.239762  0.255479  1
  Ag  Ag58  1  0.857700  0.707146  0.876551  1
  Ag  Ag59  1  0.861282  0.195566  0.877600  1
  Ag  Ag60  1  0.860237  0.943190  0.960349  1
  Ag  Ag61  1  0.139763  0.943190  0.460349  1
  Ag  Ag62  1  0.113167  0.477105  0.474346  1
  Ag  Ag63  1  0.138148  0.760854  0.761142  1
  Ge  Ge64  1  0.618748  0.002591  0.854787  1
  Ge  Ge65  1  0.381252  0.002591  0.354787  1
  Ge  Ge66  1  0.116760  0.013545  0.839310  1
  Ge  Ge67  1  0.371425  0.493614  0.348384  1
  Ge  Ge68  1  0.871556  0.924092  0.768080  1
  Ge  Ge69  1  0.377590  0.794798  0.640968  1
  Ge  Ge70  1  0.120481  0.415286  0.274981  1
  Ge  Ge71  1  0.134543  0.519959  0.849423  1
  Ge  Ge72  1  0.628575  0.493614  0.848384  1
  Ge  Ge73  1  0.873354  0.228619  0.059731  1
  Ge  Ge74  1  0.865457  0.519959  0.349423  1
  Ge  Ge75  1  0.883240  0.013545  0.339310  1
  Ge  Ge76  1  0.379427  0.705955  0.067369  1
  Ge  Ge77  1  0.128444  0.924092  0.268080  1
  Ge  Ge78  1  0.878505  0.719608  0.056112  1
  Ge  Ge79  1  0.372004  0.197356  0.064201  1
  Ge  Ge80  1  0.627996  0.197356  0.564201  1
  Ge  Ge81  1  0.126646  0.228619  0.559731  1
  Ge  Ge82  1  0.382024  0.310040  0.625606  1
  Ge  Ge83  1  0.879519  0.415286  0.774981  1
  Ge  Ge84  1  0.620573  0.705955  0.567369  1
  Ge  Ge85  1  0.622410  0.794798  0.140968  1
  Ge  Ge86  1  0.617976  0.310040  0.125606  1
  Ge  Ge87  1  0.121495  0.719608  0.556112  1
  O  O88  1  0.838596  0.277442  0.772059  1
  O  O89  1  0.585248  0.752094  0.225275  1
  O  O90  1  0.910777  0.970900  0.685179  1
  O  O91  1  0.138064  0.477851  0.193145  1
  O  O92  1  0.846641  0.154051  0.341156  1
  O  O93  1  0.661072  0.566797  0.567525  1
  O  O94  1  0.050096  0.004116  0.337071  1
  O  O95  1  0.453797  0.710559  0.572684  1
  O  O96  1  0.614180  0.245706  0.207089  1
  O  O97  1  0.919347  0.091331  0.054515  1
  O  O98  1  0.836385  0.954183  0.418587  1
  O  O99  1  0.184120  0.946473  0.763799  1
  O  O100  1  0.216323  0.771746  0.628283  1
  O  O101  1  0.284422  0.063840  0.421567  1
  O  O102  1  0.666647  0.764561  0.487873  1
  O  O103  1  0.531602  0.315624  0.583492  1
  O  O104  1  0.709871  0.938414  0.784301  1
  O  O105  1  0.416177  0.631489  0.354281  1
  O  O106  1  0.915419  0.296938  0.982216  1
  O  O107  1  0.788376  0.658129  0.986397  1
  O  O108  1  0.929137  0.294937  0.138599  1
  O  O109  1  0.974539  0.622432  0.093733  1
  O  O110  1  0.293767  0.230183  0.561338  1
  O  O111  1  0.782791  0.605407  0.294794  1
  O  O112  1  0.471434  0.899484  0.391158  1
  O  O113  1  0.049366  0.597979  0.913417  1
  O  O114  1  0.783677  0.771746  0.128283  1
  O  O115  1  0.084581  0.296938  0.482216  1
  O  O116  1  0.546203  0.710559  0.072684  1
  O  O117  1  0.586500  0.931692  0.127700  1
  O  O118  1  0.468398  0.315624  0.083492  1
  O  O119  1  0.035536  0.827901  0.523367  1
  O  O120  1  0.861936  0.477851  0.693145  1
  O  O121  1  0.445568  0.120031  0.995042  1
  O  O122  1  0.964464  0.827901  0.023367  1
  O  O123  1  0.591936  0.425490  0.926564  1
  O  O124  1  0.240795  0.428591  0.888196  1
  O  O125  1  0.217209  0.605407  0.794794  1
  O  O126  1  0.211624  0.658129  0.486397  1
  O  O127  1  0.408064  0.425490  0.426564  1
  O  O128  1  0.669104  0.445128  0.134562  1
  O  O129  1  0.089553  0.786254  0.278207  1
  O  O130  1  0.528566  0.899484  0.891158  1
  O  O131  1  0.037561  0.425613  0.800053  1
  O  O132  1  0.910447  0.786254  0.778207  1
  O  O133  1  0.525718  0.101605  0.817417  1
  O  O134  1  0.089223  0.970900  0.185179  1
  O  O135  1  0.163615  0.954183  0.918587  1
  O  O136  1  0.768748  0.246884  0.530113  1
  O  O137  1  0.583823  0.631489  0.854281  1
  O  O138  1  0.204208  0.491916  0.342714  1
  O  O139  1  0.080653  0.091331  0.554515  1
  O  O140  1  0.025461  0.622432  0.593733  1
  O  O141  1  0.950634  0.597979  0.413417  1
  O  O142  1  0.759205  0.428591  0.388196  1
  O  O143  1  0.435115  0.427260  0.271834  1
  O  O144  1  0.658254  0.134327  0.644444  1
  O  O145  1  0.683075  0.779060  0.642516  1
  O  O146  1  0.706233  0.230183  0.061338  1
  O  O147  1  0.715578  0.063840  0.921567  1
  O  O148  1  0.231252  0.246884  0.030113  1
  O  O149  1  0.316925  0.779060  0.142516  1
  O  O150  1  0.153359  0.154051  0.841156  1
  O  O151  1  0.554432  0.120031  0.495042  1
  O  O152  1  0.341746  0.134327  0.144444  1
  O  O153  1  0.564885  0.427260  0.771834  1
  O  O154  1  0.795792  0.491916  0.842714  1
  O  O155  1  0.474282  0.101605  0.317417  1
  O  O156  1  0.962439  0.425613  0.300053  1
  O  O157  1  0.070863  0.294937  0.638599  1
  O  O158  1  0.815880  0.946473  0.263799  1
  O  O159  1  0.949904  0.004116  0.837071  1
  O  O160  1  0.330896  0.445128  0.634562  1
  O  O161  1  0.161404  0.277442  0.272059  1
  O  O162  1  0.338928  0.566797  0.067525  1
  O  O163  1  0.414752  0.752094  0.725275  1
  O  O164  1  0.385820  0.245706  0.707089  1
  O  O165  1  0.333353  0.764561  0.987873  1
  O  O166  1  0.290129  0.938414  0.284301  1
  O  O167  1  0.413500  0.931692  0.627700  1
