# generated using pymatgen
data_V3(H3O5)2
_symmetry_space_group_name_H-M   'P 1'
_cell_length_a   8.97776404
_cell_length_b   8.95689442
_cell_length_c   6.01036321
_cell_angle_alpha   89.00339456
_cell_angle_beta   90.00000000
_cell_angle_gamma   90.00000000
_symmetry_Int_Tables_number   1
_chemical_formula_structural   V3(H3O5)2
_chemical_formula_sum   'V6 H12 O20'
_cell_volume   483.23753198
_cell_formula_units_Z   2
loop_
 _symmetry_equiv_pos_site_id
 _symmetry_equiv_pos_as_xyz
  1  'x, y, z'
loop_
 _atom_site_type_symbol
 _atom_site_label
 _atom_site_symmetry_multiplicity
 _atom_site_fract_x
 _atom_site_fract_y
 _atom_site_fract_z
 _atom_site_occupancy
  V  V0  1  0.502160  0.507906  0.257483  1
  V  V1  1  0.997840  0.007906  0.257483  1
  V  V2  1  0.366252  0.143900  0.274956  1
  V  V3  1  0.642376  0.865155  0.271200  1
  V  V4  1  0.133748  0.643900  0.274956  1
  V  V5  1  0.857624  0.365155  0.271200  1
  H  H6  1  0.457568  0.456499  0.655340  1
  H  H7  1  0.042432  0.956499  0.655340  1
  H  H8  1  0.389085  0.063692  0.661536  1
  H  H9  1  0.110915  0.563692  0.661536  1
  H  H10  1  0.272999  0.855437  0.879048  1
  H  H11  1  0.431812  0.809152  0.806208  1
  H  H12  1  0.703807  0.070425  0.779419  1
  H  H13  1  0.705184  0.236694  0.713730  1
  H  H14  1  0.068188  0.309152  0.806208  1
  H  H15  1  0.227001  0.355437  0.879048  1
  H  H16  1  0.796193  0.570425  0.779419  1
  H  H17  1  0.794816  0.736694  0.713730  1
  O  O18  1  0.518284  0.516006  0.551675  1
  O  O19  1  0.981716  0.016006  0.551675  1
  O  O20  1  0.408136  0.321543  0.170683  1
  O  O21  1  0.576258  0.696187  0.160805  1
  O  O22  1  0.091864  0.821543  0.170683  1
  O  O23  1  0.923742  0.196187  0.160805  1
  O  O24  1  0.305901  0.589181  0.176343  1
  O  O25  1  0.685233  0.423511  0.162707  1
  O  O26  1  0.814767  0.923511  0.162707  1
  O  O27  1  0.194099  0.089181  0.176343  1
  O  O28  1  0.361543  0.152914  0.565905  1
  O  O29  1  0.657852  0.847797  0.541754  1
  O  O30  1  0.138457  0.652914  0.565905  1
  O  O31  1  0.842148  0.347797  0.541754  1
  O  O32  1  0.500298  0.009478  0.210004  1
  O  O33  1  0.999702  0.509478  0.210004  1
  O  O34  1  0.352336  0.880896  0.774450  1
  O  O35  1  0.644957  0.160830  0.792990  1
  O  O36  1  0.147664  0.380896  0.774450  1
  O  O37  1  0.855043  0.660830  0.792990  1
