# generated using pymatgen
data_Li4CO4
_symmetry_space_group_name_H-M   'P 1'
_cell_length_a   4.65350214
_cell_length_b   5.75270568
_cell_length_c   5.77283952
_cell_angle_alpha   90.00000000
_cell_angle_beta   90.00000000
_cell_angle_gamma   91.99636427
_symmetry_Int_Tables_number   1
_chemical_formula_structural   Li4CO4
_chemical_formula_sum   'Li8 C2 O8'
_cell_volume   154.44643133
_cell_formula_units_Z   2
loop_
 _symmetry_equiv_pos_site_id
 _symmetry_equiv_pos_as_xyz
  1  'x, y, z'
loop_
 _atom_site_type_symbol
 _atom_site_label
 _atom_site_symmetry_multiplicity
 _atom_site_fract_x
 _atom_site_fract_y
 _atom_site_fract_z
 _atom_site_occupancy
  Li  Li0  1  0.603857  0.945891  0.305520  1
  Li  Li1  1  0.069112  0.624968  0.072903  1
  Li  Li2  1  0.571050  0.312848  0.488045  1
  Li  Li3  1  0.103857  0.445891  0.694480  1
  Li  Li4  1  0.039465  0.983398  0.896753  1
  Li  Li5  1  0.071050  0.812848  0.511955  1
  Li  Li6  1  0.569112  0.124968  0.927097  1
  Li  Li7  1  0.539465  0.483398  0.103247  1
  C  C8  1  0.098598  0.245717  0.214989  1
  C  C9  1  0.598598  0.745717  0.785011  1
  O  O10  1  0.796223  0.250829  0.210864  1
  O  O11  1  0.214424  0.436786  0.350451  1
  O  O12  1  0.196564  0.033006  0.291517  1
  O  O13  1  0.714424  0.936786  0.649549  1
  O  O14  1  0.696564  0.533006  0.708483  1
  O  O15  1  0.205128  0.285248  0.980578  1
  O  O16  1  0.296223  0.750829  0.789136  1
  O  O17  1  0.705128  0.785248  0.019422  1
