# generated using pymatgen
data_Mn6OF11
_symmetry_space_group_name_H-M   'P 1'
_cell_length_a   4.96321102
_cell_length_b   5.89718403
_cell_length_c   16.22683080
_cell_angle_alpha   90.00000000
_cell_angle_beta   90.77052634
_cell_angle_gamma   90.00000000
_symmetry_Int_Tables_number   1
_chemical_formula_structural   Mn6OF11
_chemical_formula_sum   'Mn12 O2 F22'
_cell_volume   474.89965681
_cell_formula_units_Z   2
loop_
 _symmetry_equiv_pos_site_id
 _symmetry_equiv_pos_as_xyz
  1  'x, y, z'
loop_
 _atom_site_type_symbol
 _atom_site_label
 _atom_site_symmetry_multiplicity
 _atom_site_fract_x
 _atom_site_fract_y
 _atom_site_fract_z
 _atom_site_occupancy
  Mn  Mn0  1  0.003291  0.167223  0.416164  1
  Mn  Mn1  1  0.015132  0.833411  0.245268  1
  Mn  Mn2  1  0.007473  0.144578  0.086090  1
  Mn  Mn3  1  0.015132  0.166589  0.745268  1
  Mn  Mn4  1  0.007473  0.855422  0.586090  1
  Mn  Mn5  1  0.003291  0.832777  0.916164  1
  Mn  Mn6  1  0.474615  0.310566  0.587607  1
  Mn  Mn7  1  0.514579  0.329977  0.919206  1
  Mn  Mn8  1  0.495584  0.334245  0.249152  1
  Mn  Mn9  1  0.474615  0.689434  0.087607  1
  Mn  Mn10  1  0.514579  0.670023  0.419206  1
  Mn  Mn11  1  0.495584  0.665755  0.749152  1
  O  O12  1  0.205026  0.087513  0.635413  1
  O  O13  1  0.205026  0.912487  0.135413  1
  F  F14  1  0.235865  0.108602  0.309267  1
  F  F15  1  0.224128  0.114442  0.976379  1
  F  F16  1  0.224128  0.885558  0.476379  1
  F  F17  1  0.235865  0.891398  0.809267  1
  F  F18  1  0.257650  0.394272  0.137734  1
  F  F19  1  0.273600  0.607686  0.308449  1
  F  F20  1  0.285106  0.392170  0.472740  1
  F  F21  1  0.257650  0.605728  0.637734  1
  F  F22  1  0.273600  0.392314  0.808449  1
  F  F23  1  0.285106  0.607830  0.972740  1
  F  F24  1  0.752134  0.372029  0.032578  1
  F  F25  1  0.712247  0.616342  0.193691  1
  F  F26  1  0.730686  0.393775  0.360723  1
  F  F27  1  0.752134  0.627971  0.532578  1
  F  F28  1  0.730686  0.606225  0.860723  1
  F  F29  1  0.712247  0.383658  0.693691  1
  F  F30  1  0.770378  0.120743  0.189865  1
  F  F31  1  0.763121  0.105558  0.523773  1
  F  F32  1  0.779385  0.889382  0.355902  1
  F  F33  1  0.763121  0.894443  0.023773  1
  F  F34  1  0.779385  0.110618  0.855902  1
  F  F35  1  0.770378  0.879258  0.689865  1
