# generated using pymatgen
data_Mn2CuO4
_symmetry_space_group_name_H-M   'P 1'
_cell_length_a   6.05905111
_cell_length_b   6.05905140
_cell_length_c   18.13023619
_cell_angle_alpha   59.91436021
_cell_angle_beta   59.91435859
_cell_angle_gamma   59.99999645
_symmetry_Int_Tables_number   1
_chemical_formula_structural   Mn2CuO4
_chemical_formula_sum   'Mn12 Cu6 O24'
_cell_volume   470.03945560
_cell_formula_units_Z   6
loop_
 _symmetry_equiv_pos_site_id
 _symmetry_equiv_pos_as_xyz
  1  'x, y, z'
loop_
 _atom_site_type_symbol
 _atom_site_label
 _atom_site_symmetry_multiplicity
 _atom_site_fract_x
 _atom_site_fract_y
 _atom_site_fract_z
 _atom_site_occupancy
  Mn  Mn0  1  0.002294  0.002294  0.997706  1
  Mn  Mn1  1  0.126983  0.623901  0.208405  1
  Mn  Mn2  1  0.623901  0.126983  0.208405  1
  Mn  Mn3  1  0.002798  0.002798  0.330535  1
  Mn  Mn4  1  0.623901  0.623901  0.208405  1
  Mn  Mn5  1  0.127170  0.623268  0.542099  1
  Mn  Mn6  1  0.623268  0.127170  0.542099  1
  Mn  Mn7  1  0.623268  0.623268  0.542099  1
  Mn  Mn8  1  0.125622  0.626435  0.873836  1
  Mn  Mn9  1  0.626435  0.125622  0.873836  1
  Mn  Mn10  1  0.626021  0.626021  0.707312  1
  Mn  Mn11  1  0.626435  0.626435  0.873836  1
  Cu  Cu12  1  0.248818  0.248818  0.084515  1
  Cu  Cu13  1  0.247050  0.247050  0.419617  1
  Cu  Cu14  1  0.624768  0.624768  0.041899  1
  Cu  Cu15  1  0.249761  0.249761  0.750239  1
  Cu  Cu16  1  0.623679  0.623679  0.376321  1
  Cu  Cu17  1  0.000259  0.000259  0.666408  1
  O  O18  1  0.380501  0.380501  0.134021  1
  O  O19  1  0.380501  0.836934  0.134021  1
  O  O20  1  0.380708  0.380708  0.285959  1
  O  O21  1  0.379606  0.379606  0.467592  1
  O  O22  1  0.415751  0.867698  0.282951  1
  O  O23  1  0.836934  0.380501  0.134021  1
  O  O24  1  0.866010  0.866010  0.133990  1
  O  O25  1  0.379606  0.838009  0.467592  1
  O  O26  1  0.867698  0.415751  0.282951  1
  O  O27  1  0.383194  0.383194  0.616806  1
  O  O28  1  0.385965  0.385965  0.796851  1
  O  O29  1  0.411534  0.864622  0.619741  1
  O  O30  1  0.867698  0.867698  0.282951  1
  O  O31  1  0.838009  0.379606  0.467592  1
  O  O32  1  0.863884  0.863884  0.469449  1
  O  O33  1  0.385965  0.837518  0.796851  1
  O  O34  1  0.864622  0.411534  0.619741  1
  O  O35  1  0.382937  0.382937  0.950396  1
  O  O36  1  0.837518  0.385965  0.796851  1
  O  O37  1  0.864622  0.864622  0.619741  1
  O  O38  1  0.415624  0.870202  0.947990  1
  O  O39  1  0.868280  0.868280  0.798387  1
  O  O40  1  0.870202  0.415624  0.947990  1
  O  O41  1  0.870202  0.870202  0.947990  1
