# generated using pymatgen
data_Cd(FeO2)2
_symmetry_space_group_name_H-M   'P 1'
_cell_length_a   6.23952703
_cell_length_b   6.23952757
_cell_length_c   37.58487145
_cell_angle_alpha   60.12992025
_cell_angle_beta   60.12991727
_cell_angle_gamma   59.99999945
_symmetry_Int_Tables_number   1
_chemical_formula_structural   Cd(FeO2)2
_chemical_formula_sum   'Cd12 Fe24 O48'
_cell_volume   1036.69617487
_cell_formula_units_Z   12
loop_
 _symmetry_equiv_pos_site_id
 _symmetry_equiv_pos_as_xyz
  1  'x, y, z'
loop_
 _atom_site_type_symbol
 _atom_site_label
 _atom_site_symmetry_multiplicity
 _atom_site_fract_x
 _atom_site_fract_y
 _atom_site_fract_z
 _atom_site_occupancy
  Cd  Cd0  1  0.247154  0.247154  0.043090  1
  Cd  Cd1  1  0.629137  0.629137  0.018764  1
  Cd  Cd2  1  0.003286  0.003286  0.331690  1
  Cd  Cd3  1  0.246149  0.246149  0.210258  1
  Cd  Cd4  1  0.622054  0.622054  0.188973  1
  Cd  Cd5  1  1.000020  1.000020  0.499990  1
  Cd  Cd6  1  0.246732  0.246732  0.376634  1
  Cd  Cd7  1  0.000332  0.000332  0.666501  1
  Cd  Cd8  1  0.251476  0.251476  0.540929  1
  Cd  Cd9  1  0.251435  0.251435  0.707615  1
  Cd  Cd10  1  0.998651  0.998651  0.834007  1
  Cd  Cd11  1  0.250388  0.250388  0.874806  1
  Fe  Fe12  1  0.002932  0.002932  0.998534  1
  Fe  Fe13  1  0.004633  0.004633  0.164350  1
  Fe  Fe14  1  0.131450  0.621369  0.104302  1
  Fe  Fe15  1  0.621369  0.131450  0.104302  1
  Fe  Fe16  1  0.621369  0.621369  0.104302  1
  Fe  Fe17  1  0.124352  0.620230  0.272531  1
  Fe  Fe18  1  0.620230  0.124352  0.272531  1
  Fe  Fe19  1  0.620230  0.620230  0.272531  1
  Fe  Fe20  1  0.125095  0.625498  0.437318  1
  Fe  Fe21  1  0.623976  0.623976  0.354679  1
  Fe  Fe22  1  0.625498  0.125095  0.437318  1
  Fe  Fe23  1  0.625498  0.625498  0.437318  1
  Fe  Fe24  1  0.126333  0.625406  0.603809  1
  Fe  Fe25  1  0.626028  0.626028  0.520319  1
  Fe  Fe26  1  0.625406  0.126333  0.603809  1
  Fe  Fe27  1  0.625406  0.625406  0.603809  1
  Fe  Fe28  1  0.127662  0.625663  0.770168  1
  Fe  Fe29  1  0.626603  0.626603  0.686698  1
  Fe  Fe30  1  0.625663  0.127662  0.770168  1
  Fe  Fe31  1  0.625663  0.625663  0.770168  1
  Fe  Fe32  1  0.134737  0.624284  0.936116  1
  Fe  Fe33  1  0.629295  0.629295  0.852020  1
  Fe  Fe34  1  0.624284  0.134737  0.936116  1
  Fe  Fe35  1  0.624284  0.624284  0.936116  1
  O  O36  1  0.377354  0.377354  0.069830  1
  O  O37  1  0.377354  0.826313  0.069830  1
  O  O38  1  0.388576  0.388576  0.139045  1
  O  O39  1  0.826313  0.377354  0.069830  1
  O  O40  1  0.367354  0.367354  0.239848  1
  O  O41  1  0.392383  0.883252  0.140186  1
  O  O42  1  0.883252  0.392383  0.140186  1
  O  O43  1  0.386926  0.386926  0.306537  1
  O  O44  1  0.367354  0.826202  0.239848  1
  O  O45  1  0.872036  0.872036  0.063982  1
  O  O46  1  0.826202  0.367354  0.239848  1
  O  O47  1  0.883252  0.883252  0.140186  1
  O  O48  1  0.390695  0.390695  0.399542  1
  O  O49  1  0.430831  0.852943  0.310547  1
  O  O50  1  0.852943  0.430831  0.310547  1
  O  O51  1  0.392041  0.392041  0.470646  1
  O  O52  1  0.875717  0.875717  0.228809  1
  O  O53  1  0.390695  0.821362  0.399542  1
  O  O54  1  0.821362  0.390695  0.399542  1
  O  O55  1  0.852943  0.852943  0.310547  1
  O  O56  1  0.391487  0.391487  0.565650  1
  O  O57  1  0.426689  0.856901  0.476585  1
  O  O58  1  0.856901  0.426689  0.476585  1
  O  O59  1  0.858712  0.858712  0.403977  1
  O  O60  1  0.391487  0.823126  0.565650  1
  O  O61  1  0.392398  0.392398  0.637134  1
  O  O62  1  0.823126  0.391487  0.565650  1
  O  O63  1  0.856901  0.856901  0.476585  1
  O  O64  1  0.426657  0.857188  0.643162  1
  O  O65  1  0.392155  0.392155  0.732052  1
  O  O66  1  0.392299  0.392299  0.803850  1
  O  O67  1  0.857188  0.426657  0.643162  1
  O  O68  1  0.857389  0.857389  0.571306  1
  O  O69  1  0.392155  0.823375  0.732052  1
  O  O70  1  0.823375  0.392155  0.732052  1
  O  O71  1  0.857188  0.857188  0.643162  1
  O  O72  1  0.397139  0.397139  0.897138  1
  O  O73  1  0.425588  0.859436  0.809256  1
  O  O74  1  0.392382  0.392382  0.970476  1
  O  O75  1  0.859436  0.425588  0.809256  1
  O  O76  1  0.857613  0.857613  0.737861  1
  O  O77  1  0.397139  0.822892  0.897138  1
  O  O78  1  0.822892  0.397139  0.897138  1
  O  O79  1  0.859436  0.859436  0.809256  1
  O  O80  1  0.384897  0.891631  0.971974  1
  O  O81  1  0.891631  0.384897  0.971974  1
  O  O82  1  0.853716  0.853716  0.906475  1
  O  O83  1  0.891631  0.891631  0.971974  1
