# generated using pymatgen
data_Sr3LaBr9
_symmetry_space_group_name_H-M   'P 1'
_cell_length_a   7.81068802
_cell_length_b   30.66120734
_cell_length_c   7.26976644
_cell_angle_alpha   90.00000000
_cell_angle_beta   90.00000000
_cell_angle_gamma   91.91437527
_symmetry_Int_Tables_number   1
_chemical_formula_structural   Sr3LaBr9
_chemical_formula_sum   'Sr12 La4 Br36'
_cell_volume   1740.02921068
_cell_formula_units_Z   4
loop_
 _symmetry_equiv_pos_site_id
 _symmetry_equiv_pos_as_xyz
  1  'x, y, z'
loop_
 _atom_site_type_symbol
 _atom_site_label
 _atom_site_symmetry_multiplicity
 _atom_site_fract_x
 _atom_site_fract_y
 _atom_site_fract_z
 _atom_site_occupancy
  Sr  Sr0  1  0.327851  0.932988  0.969830  1
  Sr  Sr1  1  0.296376  0.692173  0.003478  1
  Sr  Sr2  1  0.327851  0.432988  0.030170  1
  Sr  Sr3  1  0.296376  0.192173  0.996522  1
  Sr  Sr4  1  0.683068  0.568760  0.987909  1
  Sr  Sr5  1  0.716938  0.809232  0.984854  1
  Sr  Sr6  1  0.683068  0.068760  0.012091  1
  Sr  Sr7  1  0.716938  0.309232  0.015146  1
  Sr  Sr8  1  0.785489  0.692096  0.520738  1
  Sr  Sr9  1  0.822638  0.931715  0.514970  1
  Sr  Sr10  1  0.785489  0.192096  0.479262  1
  Sr  Sr11  1  0.822638  0.431715  0.485030  1
  La  La12  1  0.204317  0.807001  0.520735  1
  La  La13  1  0.179863  0.567437  0.544767  1
  La  La14  1  0.204317  0.307001  0.479265  1
  La  La15  1  0.179863  0.067437  0.455233  1
  Br  Br16  1  0.015806  0.869646  0.800386  1
  Br  Br17  1  0.009907  0.751351  0.821117  1
  Br  Br18  1  0.001947  0.628840  0.817811  1
  Br  Br19  1  0.015806  0.369646  0.199614  1
  Br  Br20  1  0.009907  0.251351  0.178883  1
  Br  Br21  1  0.108329  0.991485  0.709702  1
  Br  Br22  1  0.001947  0.128840  0.182189  1
  Br  Br23  1  0.150458  0.894546  0.326190  1
  Br  Br24  1  0.108329  0.491485  0.290298  1
  Br  Br25  1  0.156248  0.706182  0.393362  1
  Br  Br26  1  0.150458  0.394546  0.673810  1
  Br  Br27  1  0.156248  0.206182  0.606638  1
  Br  Br28  1  0.357131  0.795545  0.151743  1
  Br  Br29  1  0.353996  0.599924  0.200195  1
  Br  Br30  1  0.357131  0.295545  0.848257  1
  Br  Br31  1  0.353996  0.099924  0.799805  1
  Br  Br32  1  0.415908  0.510270  0.753452  1
  Br  Br33  1  0.497660  0.868039  0.683086  1
  Br  Br34  1  0.493895  0.750831  0.694996  1
  Br  Br35  1  0.482661  0.628772  0.701959  1
  Br  Br36  1  0.415908  0.010270  0.246548  1
  Br  Br37  1  0.497660  0.368039  0.316914  1
  Br  Br38  1  0.493895  0.250831  0.305004  1
  Br  Br39  1  0.482661  0.128772  0.298041  1
  Br  Br40  1  0.604926  0.989460  0.762033  1
  Br  Br41  1  0.604926  0.489460  0.237967  1
  Br  Br42  1  0.655145  0.900190  0.156766  1
  Br  Br43  1  0.670972  0.699170  0.119425  1
  Br  Br44  1  0.655145  0.400190  0.843234  1
  Br  Br45  1  0.670972  0.199170  0.880575  1
  Br  Br46  1  0.845996  0.797048  0.387001  1
  Br  Br47  1  0.867413  0.599307  0.350272  1
  Br  Br48  1  0.845996  0.297048  0.612999  1
  Br  Br49  1  0.867413  0.099307  0.649728  1
  Br  Br50  1  0.925797  0.509805  0.758290  1
  Br  Br51  1  0.925797  0.009805  0.241710  1
