# generated using pymatgen
data_Ba3LaI9
_symmetry_space_group_name_H-M   'P 1'
_cell_length_a   8.69131711
_cell_length_b   33.89918305
_cell_length_c   8.08942939
_cell_angle_alpha   90.00000000
_cell_angle_beta   90.00000000
_cell_angle_gamma   92.08353497
_symmetry_Int_Tables_number   1
_chemical_formula_structural   Ba3LaI9
_chemical_formula_sum   'Ba12 La4 I36'
_cell_volume   2381.80115614
_cell_formula_units_Z   4
loop_
 _symmetry_equiv_pos_site_id
 _symmetry_equiv_pos_as_xyz
  1  'x, y, z'
loop_
 _atom_site_type_symbol
 _atom_site_label
 _atom_site_symmetry_multiplicity
 _atom_site_fract_x
 _atom_site_fract_y
 _atom_site_fract_z
 _atom_site_occupancy
  Ba  Ba0  1  0.321106  0.933002  0.969801  1
  Ba  Ba1  1  0.293682  0.692059  0.002595  1
  Ba  Ba2  1  0.321106  0.433002  0.030199  1
  Ba  Ba3  1  0.293682  0.192059  0.997405  1
  Ba  Ba4  1  0.683283  0.570155  0.985549  1
  Ba  Ba5  1  0.715661  0.808387  0.982199  1
  Ba  Ba6  1  0.683283  0.070155  0.014451  1
  Ba  Ba7  1  0.715661  0.308387  0.017801  1
  Ba  Ba8  1  0.784537  0.692156  0.526526  1
  Ba  Ba9  1  0.821513  0.930740  0.517478  1
  Ba  Ba10  1  0.784537  0.192156  0.473474  1
  Ba  Ba11  1  0.821513  0.430740  0.482522  1
  La  La12  1  0.202163  0.806520  0.520166  1
  La  La13  1  0.178526  0.567181  0.546150  1
  La  La14  1  0.202163  0.306520  0.479834  1
  La  La15  1  0.178526  0.067181  0.453850  1
  I  I16  1  0.021674  0.868491  0.797068  1
  I  I17  1  0.016212  0.752557  0.816018  1
  I  I18  1  0.007206  0.627407  0.812218  1
  I  I19  1  0.021674  0.368491  0.202932  1
  I  I20  1  0.016212  0.252557  0.183982  1
  I  I21  1  0.109438  0.993682  0.702475  1
  I  I22  1  0.007206  0.127407  0.187782  1
  I  I23  1  0.153591  0.892420  0.333305  1
  I  I24  1  0.109438  0.493682  0.297525  1
  I  I25  1  0.158537  0.707674  0.399275  1
  I  I26  1  0.153591  0.392420  0.666695  1
  I  I27  1  0.158537  0.207674  0.600725  1
  I  I28  1  0.353967  0.795980  0.162298  1
  I  I29  1  0.349409  0.599242  0.210998  1
  I  I30  1  0.353967  0.295980  0.837702  1
  I  I31  1  0.349409  0.099242  0.789002  1
  I  I32  1  0.411863  0.511106  0.743030  1
  I  I33  1  0.491634  0.866900  0.677022  1
  I  I34  1  0.485527  0.752174  0.690520  1
  I  I35  1  0.472682  0.627858  0.697088  1
  I  I36  1  0.411863  0.011106  0.256970  1
  I  I37  1  0.491634  0.366900  0.322978  1
  I  I38  1  0.485527  0.252174  0.309480  1
  I  I39  1  0.472682  0.127858  0.302912  1
  I  I40  1  0.602081  0.990244  0.762132  1
  I  I41  1  0.602081  0.490244  0.237868  1
  I  I42  1  0.656266  0.900767  0.150760  1
  I  I43  1  0.677848  0.698721  0.111440  1
  I  I44  1  0.656266  0.400767  0.849240  1
  I  I45  1  0.677848  0.198721  0.888560  1
  I  I46  1  0.852343  0.797503  0.392801  1
  I  I47  1  0.875799  0.598567  0.355919  1
  I  I48  1  0.852343  0.297503  0.607199  1
  I  I49  1  0.875799  0.098567  0.644081  1
  I  I50  1  0.934183  0.510318  0.755334  1
  I  I51  1  0.934183  0.010318  0.244666  1
