# generated using pymatgen
data_NaBi5O8
_symmetry_space_group_name_H-M   'P 1'
_cell_length_a   8.35138972
_cell_length_b   16.42652581
_cell_length_c   7.91048996
_cell_angle_alpha   90.00000000
_cell_angle_beta   84.35854796
_cell_angle_gamma   90.00000000
_symmetry_Int_Tables_number   1
_chemical_formula_structural   NaBi5O8
_chemical_formula_sum   'Na4 Bi20 O32'
_cell_volume   1079.93907664
_cell_formula_units_Z   4
loop_
 _symmetry_equiv_pos_site_id
 _symmetry_equiv_pos_as_xyz
  1  'x, y, z'
loop_
 _atom_site_type_symbol
 _atom_site_label
 _atom_site_symmetry_multiplicity
 _atom_site_fract_x
 _atom_site_fract_y
 _atom_site_fract_z
 _atom_site_occupancy
  Na  Na0  1  0.081013  0.484115  0.055355  1
  Na  Na1  1  0.354210  0.954088  0.259505  1
  Na  Na2  1  0.581013  0.515885  0.555355  1
  Na  Na3  1  0.854210  0.045912  0.759505  1
  Bi  Bi4  1  0.025261  0.444298  0.465669  1
  Bi  Bi5  1  0.101593  0.204291  0.289255  1
  Bi  Bi6  1  0.106949  0.207887  0.745983  1
  Bi  Bi7  1  0.264241  0.728647  0.057349  1
  Bi  Bi8  1  0.272466  0.958220  0.688626  1
  Bi  Bi9  1  0.282243  0.719251  0.509135  1
  Bi  Bi10  1  0.425224  0.362991  0.802700  1
  Bi  Bi11  1  0.411041  0.347729  0.268319  1
  Bi  Bi12  1  0.453669  0.146218  0.001067  1
  Bi  Bi13  1  0.463277  0.138156  0.455062  1
  Bi  Bi14  1  0.525261  0.555702  0.965669  1
  Bi  Bi15  1  0.601593  0.795709  0.789255  1
  Bi  Bi16  1  0.606949  0.792113  0.245983  1
  Bi  Bi17  1  0.764241  0.271353  0.557349  1
  Bi  Bi18  1  0.782243  0.280749  0.009135  1
  Bi  Bi19  1  0.772466  0.041780  0.188626  1
  Bi  Bi20  1  0.911041  0.652271  0.768319  1
  Bi  Bi21  1  0.925224  0.637009  0.302700  1
  Bi  Bi22  1  0.953669  0.853782  0.501067  1
  Bi  Bi23  1  0.963277  0.861844  0.955063  1
  O  O24  1  0.124563  0.954259  0.484562  1
  O  O25  1  0.107858  0.756795  0.333486  1
  O  O26  1  0.048436  0.603516  0.518059  1
  O  O27  1  0.079098  0.978100  0.883979  1
  O  O28  1  0.104980  0.619737  0.091023  1
  O  O29  1  0.105681  0.798967  0.682702  1
  O  O30  1  0.274052  0.277337  0.101385  1
  O  O31  1  0.237927  0.446085  0.289662  1
  O  O32  1  0.309306  0.107085  0.259633  1
  O  O33  1  0.262212  0.254834  0.462647  1
  O  O34  1  0.382144  0.495699  0.793007  1
  O  O35  1  0.303683  0.089013  0.671307  1
  O  O36  1  0.442686  0.673527  0.859398  1
  O  O37  1  0.424657  0.685992  0.241631  1
  O  O38  1  0.463710  0.841449  0.065582  1
  O  O39  1  0.429413  0.829213  0.459244  1
  O  O40  1  0.607858  0.243205  0.833486  1
  O  O41  1  0.624563  0.045741  0.984562  1
  O  O42  1  0.604980  0.380263  0.591023  1
  O  O43  1  0.548436  0.396484  0.018059  1
  O  O44  1  0.579098  0.021900  0.383979  1
  O  O45  1  0.605681  0.201033  0.182702  1
  O  O46  1  0.774052  0.722663  0.601385  1
  O  O47  1  0.737927  0.553915  0.789662  1
  O  O48  1  0.809306  0.892915  0.759633  1
  O  O49  1  0.762212  0.745166  0.962647  1
  O  O50  1  0.882144  0.504301  0.293007  1
  O  O51  1  0.803683  0.910987  0.171307  1
  O  O52  1  0.942686  0.326473  0.359398  1
  O  O53  1  0.924657  0.314008  0.741631  1
  O  O54  1  0.963710  0.158551  0.565582  1
  O  O55  1  0.929413  0.170787  0.959244  1
