# generated using pymatgen
data_Mn(Cu3O4)2
_symmetry_space_group_name_H-M   'P 1'
_cell_length_a   6.47507629
_cell_length_b   6.47050739
_cell_length_c   6.47404562
_cell_angle_alpha   60.08449066
_cell_angle_beta   60.00742105
_cell_angle_gamma   60.07391902
_symmetry_Int_Tables_number   1
_chemical_formula_structural   Mn(Cu3O4)2
_chemical_formula_sum   'Mn1 Cu6 O8'
_cell_volume   192.03804669
_cell_formula_units_Z   1
loop_
 _symmetry_equiv_pos_site_id
 _symmetry_equiv_pos_as_xyz
  1  'x, y, z'
loop_
 _atom_site_type_symbol
 _atom_site_label
 _atom_site_symmetry_multiplicity
 _atom_site_fract_x
 _atom_site_fract_y
 _atom_site_fract_z
 _atom_site_occupancy
  Mn  Mn0  1  0.999982  0.000003  0.000009  1
  Cu  Cu1  1  0.500010  0.999996  0.999994  1
  Cu  Cu2  1  0.499998  0.500008  0.999992  1
  Cu  Cu3  1  0.499993  0.000003  0.500003  1
  Cu  Cu4  1  0.000002  0.500008  0.999998  1
  Cu  Cu5  1  0.000002  -0.000001  0.500008  1
  Cu  Cu6  1  0.000000  0.499991  0.500002  1
  O  O7  1  0.577428  0.140939  0.141197  1
  O  O8  1  0.140606  0.141158  0.140755  1
  O  O9  1  0.140892  0.577323  0.140846  1
  O  O10  1  0.141173  0.140865  0.577399  1
  O  O11  1  0.859111  0.422672  0.859158  1
  O  O12  1  0.858831  0.859135  0.422596  1
  O  O13  1  0.859399  0.858838  0.859240  1
  O  O14  1  0.422573  0.859062  0.858801  1
