# generated using pymatgen
data_Li3V2F12
_symmetry_space_group_name_H-M   'P 1'
_cell_length_a   9.72815637
_cell_length_b   8.84241076
_cell_length_c   5.03045531
_cell_angle_alpha   90.00000000
_cell_angle_beta   88.37122997
_cell_angle_gamma   90.00000000
_symmetry_Int_Tables_number   1
_chemical_formula_structural   Li3V2F12
_chemical_formula_sum   'Li6 V4 F24'
_cell_volume   432.54671616
_cell_formula_units_Z   2
loop_
 _symmetry_equiv_pos_site_id
 _symmetry_equiv_pos_as_xyz
  1  'x, y, z'
loop_
 _atom_site_type_symbol
 _atom_site_label
 _atom_site_symmetry_multiplicity
 _atom_site_fract_x
 _atom_site_fract_y
 _atom_site_fract_z
 _atom_site_occupancy
  Li  Li0  1  0.108285  0.857154  0.015944  1
  Li  Li1  1  0.382313  0.399911  0.496509  1
  Li  Li2  1  0.397702  0.935031  0.982028  1
  Li  Li3  1  0.608285  0.642846  0.015944  1
  Li  Li4  1  0.882313  0.100089  0.496509  1
  Li  Li5  1  0.897702  0.564969  0.982028  1
  V  V6  1  0.131596  0.242839  0.997658  1
  V  V7  1  0.366971  0.743837  0.502737  1
  V  V8  1  0.631596  0.257161  0.997658  1
  V  V9  1  0.866971  0.756163  0.502737  1
  F  F10  1  0.021397  0.110773  0.822711  1
  F  F11  1  0.016580  0.231476  0.288224  1
  F  F12  1  0.030931  0.398359  0.875087  1
  F  F13  1  0.225633  0.077136  0.114924  1
  F  F14  1  0.248068  0.253354  0.710327  1
  F  F15  1  0.243515  0.364548  0.178178  1
  F  F16  1  0.249518  0.756060  0.214079  1
  F  F17  1  0.258771  0.881350  0.710670  1
  F  F18  1  0.283028  0.576393  0.647871  1
  F  F19  1  0.462718  0.898404  0.337016  1
  F  F20  1  0.487987  0.758897  0.798100  1
  F  F21  1  0.479772  0.594546  0.320880  1
  F  F22  1  0.521397  0.389227  0.822711  1
  F  F23  1  0.516580  0.268524  0.288224  1
  F  F24  1  0.530931  0.101641  0.875087  1
  F  F25  1  0.725633  0.422864  0.114924  1
  F  F26  1  0.748068  0.246646  0.710327  1
  F  F27  1  0.743515  0.135452  0.178178  1
  F  F28  1  0.749518  0.743940  0.214079  1
  F  F29  1  0.758771  0.618650  0.710670  1
  F  F30  1  0.783028  0.923607  0.647871  1
  F  F31  1  0.962718  0.601596  0.337016  1
  F  F32  1  0.987987  0.741103  0.798100  1
  F  F33  1  0.979772  0.905454  0.320880  1
