# generated using pymatgen
data_BaCa2I6
_symmetry_space_group_name_H-M   'P 1'
_cell_length_a   8.19889496
_cell_length_b   8.58853675
_cell_length_c   11.86037846
_cell_angle_alpha   90.00000000
_cell_angle_beta   91.02991750
_cell_angle_gamma   90.00000000
_symmetry_Int_Tables_number   1
_chemical_formula_structural   BaCa2I6
_chemical_formula_sum   'Ba2 Ca4 I12'
_cell_volume   835.03154217
_cell_formula_units_Z   2
loop_
 _symmetry_equiv_pos_site_id
 _symmetry_equiv_pos_as_xyz
  1  'x, y, z'
loop_
 _atom_site_type_symbol
 _atom_site_label
 _atom_site_symmetry_multiplicity
 _atom_site_fract_x
 _atom_site_fract_y
 _atom_site_fract_z
 _atom_site_occupancy
  Ba  Ba0  1  0.464243  0.329818  0.522681  1
  Ba  Ba1  1  0.964243  0.670182  0.022681  1
  Ca  Ca2  1  0.483528  0.735661  0.749695  1
  Ca  Ca3  1  0.483029  0.775328  0.250913  1
  Ca  Ca4  1  0.983528  0.264339  0.249695  1
  Ca  Ca5  1  0.983029  0.224672  0.750913  1
  I  I6  1  0.161409  0.586348  0.298994  1
  I  I7  1  0.099125  0.288997  0.999066  1
  I  I8  1  0.176241  0.530740  0.685787  1
  I  I9  1  0.363591  0.792620  0.996199  1
  I  I10  1  0.287024  0.032373  0.677067  1
  I  I11  1  0.314018  0.096647  0.304435  1
  I  I12  1  0.661409  0.413652  0.798994  1
  I  I13  1  0.599125  0.711003  0.499066  1
  I  I14  1  0.676241  0.469260  0.185787  1
  I  I15  1  0.863591  0.207380  0.496199  1
  I  I16  1  0.787024  0.967627  0.177067  1
  I  I17  1  0.814018  0.903353  0.804435  1
