# generated using pymatgen
data_Ta2WO8
_symmetry_space_group_name_H-M   'P 1'
_cell_length_a   3.88429913
_cell_length_b   18.11844765
_cell_length_c   16.94644345
_cell_angle_alpha   90.00000000
_cell_angle_beta   90.03110432
_cell_angle_gamma   90.00000000
_symmetry_Int_Tables_number   1
_chemical_formula_structural   Ta2WO8
_chemical_formula_sum   'Ta16 W8 O64'
_cell_volume   1192.64764714
_cell_formula_units_Z   8
loop_
 _symmetry_equiv_pos_site_id
 _symmetry_equiv_pos_as_xyz
  1  'x, y, z'
loop_
 _atom_site_type_symbol
 _atom_site_label
 _atom_site_symmetry_multiplicity
 _atom_site_fract_x
 _atom_site_fract_y
 _atom_site_fract_z
 _atom_site_occupancy
  Ta  Ta0  1  0.000859  0.345259  0.250539  1
  Ta  Ta1  1  0.000859  0.154741  0.750539  1
  Ta  Ta2  1  0.999026  0.197642  0.369532  1
  Ta  Ta3  1  0.999026  0.302358  0.869532  1
  Ta  Ta4  1  0.017751  0.027067  0.251768  1
  Ta  Ta5  1  0.017751  0.472933  0.751768  1
  Ta  Ta6  1  0.993552  0.094102  0.558871  1
  Ta  Ta7  1  0.993552  0.405898  0.058871  1
  Ta  Ta8  1  0.993251  0.096677  0.939080  1
  Ta  Ta9  1  0.993251  0.403323  0.439080  1
  Ta  Ta10  1  0.000646  0.700334  0.132181  1
  Ta  Ta11  1  0.000225  0.699414  0.368760  1
  Ta  Ta12  1  0.000646  0.799666  0.632181  1
  Ta  Ta13  1  0.000225  0.800586  0.868760  1
  Ta  Ta14  1  0.991991  0.843680  0.249275  1
  Ta  Ta15  1  0.991991  0.656320  0.749275  1
  W  W16  1  0.030867  0.199828  0.132425  1
  W  W17  1  0.030867  0.300172  0.632425  1
  W  W18  1  0.029978  0.591534  0.559641  1
  W  W19  1  0.029978  0.908466  0.059641  1
  W  W20  1  0.030070  0.906822  0.440099  1
  W  W21  1  0.030070  0.593178  0.940099  1
  W  W22  1  0.953805  0.526965  0.249352  1
  W  W23  1  0.953805  0.973035  0.749352  1
  O  O24  1  0.999354  0.997338  0.004890  1
  O  O25  1  0.999460  0.996278  0.494450  1
  O  O26  1  0.999460  0.503722  0.994450  1
  O  O27  1  0.999354  0.502662  0.504890  1
  O  O28  1  0.998750  0.810779  0.130190  1
  O  O29  1  0.998768  0.811101  0.369036  1
  O  O30  1  0.998750  0.689221  0.630190  1
  O  O31  1  0.998768  0.688899  0.869035  1
  O  O32  1  0.001118  0.937828  0.172493  1
  O  O33  1  0.001118  0.562172  0.672493  1
  O  O34  1  0.001387  0.938233  0.325840  1
  O  O35  1  0.001387  0.561767  0.825840  1
  O  O36  1  0.998808  0.230678  0.247664  1
  O  O37  1  0.998808  0.269322  0.747664  1
  O  O38  1  0.999737  0.661384  0.022086  1
  O  O39  1  0.998937  0.661257  0.477774  1
  O  O40  1  0.999737  0.838616  0.522085  1
  O  O41  1  0.998937  0.838743  0.977774  1
  O  O42  1  0.992654  0.595590  0.168468  1
  O  O43  1  0.992964  0.596199  0.330368  1
  O  O44  1  0.992654  0.904410  0.668468  1
  O  O45  1  0.992964  0.903801  0.830368  1
  O  O46  1  0.481595  0.976858  0.749752  1
  O  O47  1  0.481595  0.523142  0.249752  1
  O  O48  1  0.507755  0.907592  0.063584  1
  O  O49  1  0.507787  0.907277  0.435048  1
  O  O50  1  0.507755  0.592408  0.563584  1
  O  O51  1  0.507787  0.592723  0.935048  1
  O  O52  1  0.506432  0.295495  0.630893  1
  O  O53  1  0.499659  0.294056  0.868797  1
  O  O54  1  0.506432  0.204505  0.130893  1
  O  O55  1  0.499659  0.205944  0.368797  1
  O  O56  1  0.497371  0.152504  0.749764  1
  O  O57  1  0.497371  0.347496  0.249764  1
  O  O58  1  0.497294  0.653479  0.749810  1
  O  O59  1  0.497294  0.846521  0.249810  1
  O  O60  1  0.497623  0.700580  0.372630  1
  O  O61  1  0.497819  0.699930  0.126828  1
  O  O62  1  0.497819  0.800070  0.626828  1
  O  O63  1  0.497623  0.799420  0.872630  1
  O  O64  1  0.495851  0.082736  0.561616  1
  O  O65  1  0.495851  0.417264  0.061616  1
  O  O66  1  0.494920  0.086486  0.943723  1
  O  O67  1  0.494920  0.413514  0.443723  1
  O  O68  1  0.507242  0.023051  0.244971  1
  O  O69  1  0.507242  0.476949  0.744971  1
  O  O70  1  0.004439  0.102862  0.168095  1
  O  O71  1  0.007581  0.097305  0.333870  1
  O  O72  1  0.004439  0.397138  0.668095  1
  O  O73  1  0.007581  0.402695  0.833870  1
  O  O74  1  0.993120  0.169713  0.025620  1
  O  O75  1  0.996801  0.165946  0.478116  1
  O  O76  1  0.993120  0.330287  0.525620  1
  O  O77  1  0.996801  0.334054  0.978116  1
  O  O78  1  0.997613  0.728403  0.249739  1
  O  O79  1  0.997613  0.771597  0.749739  1
  O  O80  1  0.995545  0.439394  0.177226  1
  O  O81  1  0.995545  0.060606  0.677226  1
  O  O82  1  0.994804  0.058529  0.825739  1
  O  O83  1  0.994804  0.441471  0.325739  1
  O  O84  1  0.996541  0.188956  0.630270  1
  O  O85  1  0.996541  0.311044  0.130270  1
  O  O86  1  0.998251  0.186645  0.869129  1
  O  O87  1  0.998251  0.313355  0.369129  1
