# generated using pymatgen
data_Mn6O5F7
_symmetry_space_group_name_H-M   'P 1'
_cell_length_a   4.72270275
_cell_length_b   5.70037070
_cell_length_c   15.63992087
_cell_angle_alpha   90.00000000
_cell_angle_beta   89.79193820
_cell_angle_gamma   90.00000000
_symmetry_Int_Tables_number   1
_chemical_formula_structural   Mn6O5F7
_chemical_formula_sum   'Mn12 O10 F14'
_cell_volume   421.04197932
_cell_formula_units_Z   2
loop_
 _symmetry_equiv_pos_site_id
 _symmetry_equiv_pos_as_xyz
  1  'x, y, z'
loop_
 _atom_site_type_symbol
 _atom_site_label
 _atom_site_symmetry_multiplicity
 _atom_site_fract_x
 _atom_site_fract_y
 _atom_site_fract_z
 _atom_site_occupancy
  Mn  Mn0  1  0.051054  0.169729  0.415897  1
  Mn  Mn1  1  0.971976  0.852031  0.249142  1
  Mn  Mn2  1  0.043588  0.160044  0.078327  1
  Mn  Mn3  1  0.971976  0.147969  0.749142  1
  Mn  Mn4  1  0.043588  0.839956  0.578327  1
  Mn  Mn5  1  0.051054  0.830271  0.915897  1
  Mn  Mn6  1  0.514828  0.364214  0.588224  1
  Mn  Mn7  1  0.476035  0.347492  0.922486  1
  Mn  Mn8  1  0.472247  0.349475  0.246089  1
  Mn  Mn9  1  0.514828  0.635786  0.088224  1
  Mn  Mn10  1  0.476035  0.652508  0.422486  1
  Mn  Mn11  1  0.472247  0.650525  0.746089  1
  O  O12  1  0.206976  0.110419  0.298090  1
  O  O13  1  0.239106  0.114587  0.975704  1
  O  O14  1  0.239106  0.885413  0.475704  1
  O  O15  1  0.206976  0.889581  0.798090  1
  O  O16  1  0.289604  0.383089  0.138302  1
  O  O17  1  0.304175  0.399425  0.480961  1
  O  O18  1  0.289604  0.616911  0.638302  1
  O  O19  1  0.304175  0.600575  0.980961  1
  O  O20  1  0.707297  0.616673  0.198531  1
  O  O21  1  0.707297  0.383327  0.698531  1
  F  F22  1  0.233360  0.116485  0.640750  1
  F  F23  1  0.233360  0.883515  0.140750  1
  F  F24  1  0.218200  0.613228  0.311518  1
  F  F25  1  0.218200  0.386772  0.811518  1
  F  F26  1  0.770677  0.378396  0.023041  1
  F  F27  1  0.700375  0.386476  0.357528  1
  F  F28  1  0.770677  0.621604  0.523041  1
  F  F29  1  0.700375  0.613524  0.857528  1
  F  F30  1  0.780376  0.116692  0.180867  1
  F  F31  1  0.786715  0.132441  0.530188  1
  F  F32  1  0.733409  0.883496  0.364355  1
  F  F33  1  0.786715  0.867559  0.030188  1
  F  F34  1  0.733409  0.116504  0.864355  1
  F  F35  1  0.780376  0.883308  0.680867  1
