# generated using pymatgen
data_Fe4OF7
_symmetry_space_group_name_H-M   'P 1'
_cell_length_a   5.78003361
_cell_length_b   9.57970762
_cell_length_c   5.76260887
_cell_angle_alpha   90.00000000
_cell_angle_beta   67.85842582
_cell_angle_gamma   90.00000000
_symmetry_Int_Tables_number   1
_chemical_formula_structural   Fe4OF7
_chemical_formula_sum   'Fe8 O2 F14'
_cell_volume   295.55105420
_cell_formula_units_Z   2
loop_
 _symmetry_equiv_pos_site_id
 _symmetry_equiv_pos_as_xyz
  1  'x, y, z'
loop_
 _atom_site_type_symbol
 _atom_site_label
 _atom_site_symmetry_multiplicity
 _atom_site_fract_x
 _atom_site_fract_y
 _atom_site_fract_z
 _atom_site_occupancy
  Fe  Fe0  1  0.994357  0.989601  0.014808  1
  Fe  Fe1  1  0.004349  0.504292  0.997411  1
  Fe  Fe2  1  0.494357  0.260399  0.014808  1
  Fe  Fe3  1  0.029232  0.258893  0.491058  1
  Fe  Fe4  1  0.504349  0.745708  0.997411  1
  Fe  Fe5  1  0.988773  0.754472  0.493708  1
  Fe  Fe6  1  0.488773  0.495528  0.493708  1
  Fe  Fe7  1  0.529232  0.991107  0.491058  1
  O  O8  1  0.332524  0.347113  0.359032  1
  O  O9  1  0.832524  0.902887  0.359032  1
  F  F10  1  0.131450  0.154689  0.166881  1
  F  F11  1  0.147490  0.653129  0.154706  1
  F  F12  1  0.342133  0.855386  0.353658  1
  F  F13  1  0.149349  0.604531  0.645107  1
  F  F14  1  0.631450  0.095311  0.166881  1
  F  F15  1  0.161813  0.094944  0.650282  1
  F  F16  1  0.647490  0.596871  0.154706  1
  F  F17  1  0.842133  0.394614  0.353658  1
  F  F18  1  0.350580  0.404936  0.839731  1
  F  F19  1  0.367952  0.904127  0.833617  1
  F  F20  1  0.661813  0.155056  0.650282  1
  F  F21  1  0.649349  0.645469  0.645107  1
  F  F22  1  0.867952  0.345873  0.833617  1
  F  F23  1  0.850580  0.845064  0.839731  1
