# generated using pymatgen
data_Ba3LaBr9
_symmetry_space_group_name_H-M   'P 1'
_cell_length_a   8.10088380
_cell_length_b   31.53521202
_cell_length_c   7.53896065
_cell_angle_alpha   90.00000000
_cell_angle_beta   90.00000000
_cell_angle_gamma   92.06204057
_symmetry_Int_Tables_number   1
_chemical_formula_structural   Ba3LaBr9
_chemical_formula_sum   'Ba12 La4 Br36'
_cell_volume   1924.67903960
_cell_formula_units_Z   4
loop_
 _symmetry_equiv_pos_site_id
 _symmetry_equiv_pos_as_xyz
  1  'x, y, z'
loop_
 _atom_site_type_symbol
 _atom_site_label
 _atom_site_symmetry_multiplicity
 _atom_site_fract_x
 _atom_site_fract_y
 _atom_site_fract_z
 _atom_site_occupancy
  Ba  Ba0  1  0.319545  0.933179  0.971804  1
  Ba  Ba1  1  0.291098  0.691931  0.003671  1
  Ba  Ba2  1  0.319545  0.433179  0.028196  1
  Ba  Ba3  1  0.291098  0.191931  0.996329  1
  Ba  Ba4  1  0.685134  0.569951  0.987626  1
  Ba  Ba5  1  0.717354  0.808437  0.984301  1
  Ba  Ba6  1  0.685134  0.069951  0.012374  1
  Ba  Ba7  1  0.717354  0.308437  0.015699  1
  Ba  Ba8  1  0.782717  0.692007  0.524869  1
  Ba  Ba9  1  0.819273  0.930865  0.516102  1
  Ba  Ba10  1  0.782717  0.192007  0.475131  1
  Ba  Ba11  1  0.819273  0.430865  0.483898  1
  La  La12  1  0.203889  0.806659  0.519713  1
  La  La13  1  0.179520  0.566963  0.544897  1
  La  La14  1  0.203889  0.306659  0.480287  1
  La  La15  1  0.179520  0.066963  0.455103  1
  Br  Br16  1  0.022661  0.868217  0.795052  1
  Br  Br17  1  0.016751  0.752782  0.813568  1
  Br  Br18  1  0.007534  0.627268  0.809004  1
  Br  Br19  1  0.022661  0.368217  0.204948  1
  Br  Br20  1  0.016751  0.252782  0.186432  1
  Br  Br21  1  0.109339  0.994090  0.702320  1
  Br  Br22  1  0.007534  0.127268  0.190996  1
  Br  Br23  1  0.152954  0.891645  0.334213  1
  Br  Br24  1  0.109339  0.494090  0.297680  1
  Br  Br25  1  0.159240  0.708310  0.401180  1
  Br  Br26  1  0.152954  0.391645  0.665787  1
  Br  Br27  1  0.159240  0.208310  0.598820  1
  Br  Br28  1  0.352792  0.795952  0.162759  1
  Br  Br29  1  0.349305  0.599301  0.212512  1
  Br  Br30  1  0.352792  0.295952  0.837241  1
  Br  Br31  1  0.349305  0.099301  0.787488  1
  Br  Br32  1  0.411496  0.511602  0.742572  1
  Br  Br33  1  0.490058  0.866545  0.677812  1
  Br  Br34  1  0.484582  0.752363  0.691046  1
  Br  Br35  1  0.471893  0.627623  0.697358  1
  Br  Br36  1  0.411496  0.011602  0.257428  1
  Br  Br37  1  0.490058  0.366545  0.322188  1
  Br  Br38  1  0.484582  0.252363  0.308954  1
  Br  Br39  1  0.471893  0.127623  0.302642  1
  Br  Br40  1  0.600849  0.990095  0.762918  1
  Br  Br41  1  0.600849  0.490095  0.237082  1
  Br  Br42  1  0.656391  0.900846  0.149340  1
  Br  Br43  1  0.677646  0.698618  0.108407  1
  Br  Br44  1  0.656391  0.400846  0.850660  1
  Br  Br45  1  0.677646  0.198618  0.891593  1
  Br  Br46  1  0.853804  0.797616  0.395200  1
  Br  Br47  1  0.877914  0.598432  0.357056  1
  Br  Br48  1  0.853804  0.297616  0.604800  1
  Br  Br49  1  0.877914  0.098432  0.642944  1
  Br  Br50  1  0.936999  0.510517  0.755094  1
  Br  Br51  1  0.936999  0.010517  0.244906  1
