# generated using pymatgen
data_Sr3LaCl9
_symmetry_space_group_name_H-M   'P 1'
_cell_length_a   7.38935337
_cell_length_b   28.95387885
_cell_length_c   6.88462835
_cell_angle_alpha   90.00000000
_cell_angle_beta   90.00000000
_cell_angle_gamma   91.94006720
_symmetry_Int_Tables_number   1
_chemical_formula_structural   Sr3LaCl9
_chemical_formula_sum   'Sr12 La4 Cl36'
_cell_volume   1472.12495372
_cell_formula_units_Z   4
loop_
 _symmetry_equiv_pos_site_id
 _symmetry_equiv_pos_as_xyz
  1  'x, y, z'
loop_
 _atom_site_type_symbol
 _atom_site_label
 _atom_site_symmetry_multiplicity
 _atom_site_fract_x
 _atom_site_fract_y
 _atom_site_fract_z
 _atom_site_occupancy
  Sr  Sr0  1  0.326093  0.933052  0.971640  1
  Sr  Sr1  1  0.294193  0.692206  0.003738  1
  Sr  Sr2  1  0.326093  0.433052  0.028360  1
  Sr  Sr3  1  0.294193  0.192206  0.996262  1
  Sr  Sr4  1  0.685207  0.568791  0.989944  1
  Sr  Sr5  1  0.718884  0.809090  0.986038  1
  Sr  Sr6  1  0.685207  0.068791  0.010056  1
  Sr  Sr7  1  0.718884  0.309090  0.013962  1
  Sr  Sr8  1  0.783224  0.692059  0.520434  1
  Sr  Sr9  1  0.819697  0.931705  0.513479  1
  Sr  Sr10  1  0.783224  0.192059  0.479566  1
  Sr  Sr11  1  0.819697  0.431705  0.486521  1
  La  La12  1  0.206700  0.807126  0.520310  1
  La  La13  1  0.181434  0.567255  0.543003  1
  La  La14  1  0.206700  0.307126  0.479690  1
  La  La15  1  0.181434  0.067255  0.456997  1
  Cl  Cl16  1  0.016598  0.869625  0.798581  1
  Cl  Cl17  1  0.010249  0.751476  0.819760  1
  Cl  Cl18  1  0.001729  0.628744  0.815506  1
  Cl  Cl19  1  0.016598  0.369625  0.201419  1
  Cl  Cl20  1  0.010249  0.251476  0.180240  1
  Cl  Cl21  1  0.107190  0.991232  0.709214  1
  Cl  Cl22  1  0.001729  0.128744  0.184494  1
  Cl  Cl23  1  0.149168  0.894198  0.326377  1
  Cl  Cl24  1  0.107190  0.491232  0.290786  1
  Cl  Cl25  1  0.155370  0.706569  0.393888  1
  Cl  Cl26  1  0.149168  0.394198  0.673623  1
  Cl  Cl27  1  0.155370  0.206569  0.606112  1
  Cl  Cl28  1  0.357486  0.795286  0.150554  1
  Cl  Cl29  1  0.354878  0.600266  0.199478  1
  Cl  Cl30  1  0.357486  0.295286  0.849446  1
  Cl  Cl31  1  0.354878  0.100266  0.800522  1
  Cl  Cl32  1  0.417130  0.510509  0.754519  1
  Cl  Cl33  1  0.498528  0.868082  0.684523  1
  Cl  Cl34  1  0.493953  0.750926  0.696176  1
  Cl  Cl35  1  0.482400  0.628694  0.702925  1
  Cl  Cl36  1  0.417130  0.010509  0.245481  1
  Cl  Cl37  1  0.498528  0.368082  0.315477  1
  Cl  Cl38  1  0.493953  0.250926  0.303824  1
  Cl  Cl39  1  0.482400  0.128694  0.297075  1
  Cl  Cl40  1  0.603695  0.989311  0.762791  1
  Cl  Cl41  1  0.603695  0.489311  0.237209  1
  Cl  Cl42  1  0.653999  0.899975  0.155730  1
  Cl  Cl43  1  0.670370  0.699292  0.118479  1
  Cl  Cl44  1  0.653999  0.399975  0.844270  1
  Cl  Cl45  1  0.670370  0.199292  0.881521  1
  Cl  Cl46  1  0.847025  0.796883  0.388108  1
  Cl  Cl47  1  0.868533  0.599530  0.351002  1
  Cl  Cl48  1  0.847025  0.296883  0.611892  1
  Cl  Cl49  1  0.868533  0.099530  0.648998  1
  Cl  Cl50  1  0.926999  0.509932  0.757368  1
  Cl  Cl51  1  0.926999  0.009932  0.242632  1
