# generated using pymatgen
data_Mn6OF11
_symmetry_space_group_name_H-M   'P 1'
_cell_length_a   4.94820699
_cell_length_b   5.85620352
_cell_length_c   16.24889962
_cell_angle_alpha   90.00000000
_cell_angle_beta   90.00000000
_cell_angle_gamma   88.16174306
_symmetry_Int_Tables_number   1
_chemical_formula_structural   Mn6OF11
_chemical_formula_sum   'Mn12 O2 F22'
_cell_volume   470.61353627
_cell_formula_units_Z   2
loop_
 _symmetry_equiv_pos_site_id
 _symmetry_equiv_pos_as_xyz
  1  'x, y, z'
loop_
 _atom_site_type_symbol
 _atom_site_label
 _atom_site_symmetry_multiplicity
 _atom_site_fract_x
 _atom_site_fract_y
 _atom_site_fract_z
 _atom_site_occupancy
  Mn  Mn0  1  0.004763  0.166051  0.414730  1
  Mn  Mn1  1  0.023748  0.835182  0.237963  1
  Mn  Mn2  1  0.994010  0.160233  0.081526  1
  Mn  Mn3  1  0.010715  0.174951  0.753632  1
  Mn  Mn4  1  0.995261  0.829567  0.583995  1
  Mn  Mn5  1  0.993377  0.830043  0.918265  1
  Mn  Mn6  1  0.495261  0.329567  0.582672  1
  Mn  Mn7  1  0.523748  0.335182  0.928704  1
  Mn  Mn8  1  0.493377  0.330043  0.248401  1
  Mn  Mn9  1  0.494010  0.660233  0.085141  1
  Mn  Mn10  1  0.510715  0.674951  0.413035  1
  Mn  Mn11  1  0.504763  0.666051  0.751937  1
  O  O12  1  0.219994  0.889592  0.129416  1
  O  O13  1  0.719994  0.389592  0.037251  1
  F  F14  1  0.236749  0.101165  0.305327  1
  F  F15  1  0.228317  0.104735  0.641292  1
  F  F16  1  0.210291  0.120746  0.972971  1
  F  F17  1  0.235213  0.894136  0.474871  1
  F  F18  1  0.226601  0.889943  0.809773  1
  F  F19  1  0.249618  0.393713  0.140721  1
  F  F20  1  0.265037  0.606957  0.305689  1
  F  F21  1  0.270129  0.396706  0.471756  1
  F  F22  1  0.267170  0.602271  0.643814  1
  F  F23  1  0.287598  0.387443  0.815702  1
  F  F24  1  0.281409  0.616564  0.976401  1
  F  F25  1  0.710291  0.620746  0.193695  1
  F  F26  1  0.726601  0.389943  0.356893  1
  F  F27  1  0.728317  0.604735  0.525375  1
  F  F28  1  0.736749  0.601165  0.861340  1
  F  F29  1  0.735212  0.394136  0.691796  1
  F  F30  1  0.781409  0.116564  0.190266  1
  F  F31  1  0.767170  0.102271  0.522853  1
  F  F32  1  0.787598  0.887443  0.350964  1
  F  F33  1  0.749618  0.893713  0.025946  1
  F  F34  1  0.765037  0.106957  0.860978  1
  F  F35  1  0.770129  0.896706  0.694911  1
