# generated using pymatgen
data_Fe4O7F
_symmetry_space_group_name_H-M   'P 1'
_cell_length_a   5.53032121
_cell_length_b   9.28766112
_cell_length_c   5.54552321
_cell_angle_alpha   90.00000000
_cell_angle_beta   65.49226125
_cell_angle_gamma   90.00000000
_symmetry_Int_Tables_number   1
_chemical_formula_structural   Fe4O7F
_chemical_formula_sum   'Fe8 O14 F2'
_cell_volume   259.17637791
_cell_formula_units_Z   2
loop_
 _symmetry_equiv_pos_site_id
 _symmetry_equiv_pos_as_xyz
  1  'x, y, z'
loop_
 _atom_site_type_symbol
 _atom_site_label
 _atom_site_symmetry_multiplicity
 _atom_site_fract_x
 _atom_site_fract_y
 _atom_site_fract_z
 _atom_site_occupancy
  Fe  Fe0  1  0.997559  0.001987  0.000326  1
  Fe  Fe1  1  0.011578  0.493443  0.998991  1
  Fe  Fe2  1  0.500080  0.253505  0.017747  1
  Fe  Fe3  1  0.011578  0.256557  0.498991  1
  Fe  Fe4  1  0.487791  0.756382  0.985690  1
  Fe  Fe5  1  0.997559  0.748013  0.500326  1
  Fe  Fe6  1  0.500080  0.496495  0.517747  1
  Fe  Fe7  1  0.487791  0.993618  0.485690  1
  O  O8  1  0.160462  0.155898  0.156279  1
  O  O9  1  0.154249  0.653445  0.152574  1
  O  O10  1  0.343087  0.842896  0.331325  1
  O  O11  1  0.356374  0.353683  0.355619  1
  O  O12  1  0.160462  0.594102  0.656279  1
  O  O13  1  0.651451  0.097911  0.155871  1
  O  O14  1  0.154249  0.096555  0.652574  1
  O  O15  1  0.845960  0.405995  0.351898  1
  O  O16  1  0.356374  0.396317  0.855619  1
  O  O17  1  0.837638  0.905356  0.342538  1
  O  O18  1  0.343087  0.907104  0.831325  1
  O  O19  1  0.651451  0.652089  0.655871  1
  O  O20  1  0.845960  0.344005  0.851898  1
  O  O21  1  0.837638  0.844644  0.842538  1
  F  F22  1  0.653769  0.600342  0.151143  1
  F  F23  1  0.653769  0.149658  0.651143  1
