# generated using pymatgen
data_LiVF6
_symmetry_space_group_name_H-M   'P 1'
_cell_length_a   9.21163532
_cell_length_b   9.38822955
_cell_length_c   12.67808393
_cell_angle_alpha   90.00000000
_cell_angle_beta   89.60749599
_cell_angle_gamma   90.00000000
_symmetry_Int_Tables_number   1
_chemical_formula_structural   LiVF6
_chemical_formula_sum   'Li8 V8 F48'
_cell_volume   1096.38697656
_cell_formula_units_Z   8
loop_
 _symmetry_equiv_pos_site_id
 _symmetry_equiv_pos_as_xyz
  1  'x, y, z'
loop_
 _atom_site_type_symbol
 _atom_site_label
 _atom_site_symmetry_multiplicity
 _atom_site_fract_x
 _atom_site_fract_y
 _atom_site_fract_z
 _atom_site_occupancy
  Li  Li0  1  0.107093  0.119902  0.146041  1
  Li  Li1  1  0.103768  0.380412  0.859041  1
  Li  Li2  1  0.396178  0.623244  0.353666  1
  Li  Li3  1  0.472027  0.748602  0.992792  1
  Li  Li4  1  0.603768  0.119588  0.359041  1
  Li  Li5  1  0.607093  0.380098  0.646041  1
  Li  Li6  1  0.896178  0.876756  0.853666  1
  Li  Li7  1  0.972027  0.751398  0.492792  1
  V  V8  1  0.242906  0.969908  0.386421  1
  V  V9  1  0.255020  0.466601  0.117780  1
  V  V10  1  0.251214  0.530966  0.618803  1
  V  V11  1  0.253854  0.031544  0.878787  1
  V  V12  1  0.751214  0.969034  0.118803  1
  V  V13  1  0.753854  0.468456  0.378787  1
  V  V14  1  0.742906  0.530092  0.886421  1
  V  V15  1  0.755020  0.033399  0.617780  1
  F  F16  1  0.090128  0.843330  0.387727  1
  F  F17  1  0.103142  0.583755  0.118079  1
  F  F18  1  0.092515  0.633036  0.575372  1
  F  F19  1  0.092517  0.927989  0.839306  1
  F  F20  1  0.125700  0.111340  0.420876  1
  F  F21  1  0.138103  0.319104  0.160211  1
  F  F22  1  0.159192  0.067141  0.006313  1
  F  F23  1  0.160647  0.496786  0.745372  1
  F  F24  1  0.165507  0.192105  0.827248  1
  F  F25  1  0.174819  0.372368  0.565334  1
  F  F26  1  0.209311  0.008889  0.245851  1
  F  F27  1  0.217723  0.427064  0.978510  1
  F  F28  1  0.281151  0.926923  0.519167  1
  F  F29  1  0.291385  0.509936  0.255870  1
  F  F30  1  0.326835  0.867688  0.936449  1
  F  F31  1  0.330855  0.687022  0.672441  1
  F  F32  1  0.336907  0.996938  0.755900  1
  F  F33  1  0.340577  0.567181  0.491830  1
  F  F34  1  0.359283  0.821030  0.339673  1
  F  F35  1  0.375868  0.612991  0.077864  1
  F  F36  1  0.402258  0.087217  0.381466  1
  F  F37  1  0.405219  0.347043  0.113514  1
  F  F38  1  0.408608  0.426750  0.661824  1
  F  F39  1  0.404406  0.130568  0.924075  1
  F  F40  1  0.592515  0.866964  0.075372  1
  F  F41  1  0.592517  0.572011  0.339306  1
  F  F42  1  0.590128  0.656670  0.887727  1
  F  F43  1  0.603142  0.916245  0.618079  1
  F  F44  1  0.625700  0.388660  0.920876  1
  F  F45  1  0.638103  0.180896  0.660211  1
  F  F46  1  0.659192  0.432859  0.506313  1
  F  F47  1  0.660647  0.003214  0.245372  1
  F  F48  1  0.665507  0.307895  0.327248  1
  F  F49  1  0.674819  0.127632  0.065334  1
  F  F50  1  0.709311  0.491111  0.745851  1
  F  F51  1  0.717723  0.072936  0.478511  1
  F  F52  1  0.781151  0.573077  0.019167  1
  F  F53  1  0.791385  0.990064  0.755870  1
  F  F54  1  0.826835  0.632312  0.436449  1
  F  F55  1  0.830855  0.812978  0.172441  1
  F  F56  1  0.836907  0.503062  0.255900  1
  F  F57  1  0.840577  0.932819  0.991830  1
  F  F58  1  0.859283  0.678970  0.839673  1
  F  F59  1  0.875868  0.887009  0.577864  1
  F  F60  1  0.908608  0.073250  0.161824  1
  F  F61  1  0.904406  0.369432  0.424075  1
  F  F62  1  0.902258  0.412783  0.881466  1
  F  F63  1  0.905219  0.152957  0.613514  1
