# generated using pymatgen
data_Mn6O5F7
_symmetry_space_group_name_H-M   'P 1'
_cell_length_a   4.70650263
_cell_length_b   5.73417757
_cell_length_c   15.59472061
_cell_angle_alpha   90.00000000
_cell_angle_beta   88.80810654
_cell_angle_gamma   90.00000000
_symmetry_Int_Tables_number   1
_chemical_formula_structural   Mn6O5F7
_chemical_formula_sum   'Mn12 O10 F14'
_cell_volume   420.77803963
_cell_formula_units_Z   2
loop_
 _symmetry_equiv_pos_site_id
 _symmetry_equiv_pos_as_xyz
  1  'x, y, z'
loop_
 _atom_site_type_symbol
 _atom_site_label
 _atom_site_symmetry_multiplicity
 _atom_site_fract_x
 _atom_site_fract_y
 _atom_site_fract_z
 _atom_site_occupancy
  Mn  Mn0  1  0.056349  0.160110  0.413691  1
  Mn  Mn1  1  0.992478  0.842901  0.245233  1
  Mn  Mn2  1  0.022673  0.137768  0.078916  1
  Mn  Mn3  1  0.992478  0.157099  0.745233  1
  Mn  Mn4  1  0.022673  0.862232  0.578916  1
  Mn  Mn5  1  0.056349  0.839890  0.913691  1
  Mn  Mn6  1  0.492464  0.334262  0.588203  1
  Mn  Mn7  1  0.485973  0.347358  0.924743  1
  Mn  Mn8  1  0.495081  0.348563  0.251058  1
  Mn  Mn9  1  0.492464  0.665738  0.088203  1
  Mn  Mn10  1  0.485973  0.652642  0.424743  1
  Mn  Mn11  1  0.495081  0.651437  0.751058  1
  O  O12  1  0.225570  0.109224  0.301921  1
  O  O13  1  0.213320  0.110749  0.636612  1
  O  O14  1  0.232716  0.109032  0.972247  1
  O  O15  1  0.213320  0.889251  0.136612  1
  O  O16  1  0.232716  0.890968  0.472247  1
  O  O17  1  0.225570  0.890776  0.801921  1
  O  O18  1  0.296381  0.390801  0.479952  1
  O  O19  1  0.296381  0.609199  0.979952  1
  O  O20  1  0.702006  0.623151  0.195521  1
  O  O21  1  0.702006  0.376849  0.695521  1
  F  F22  1  0.252641  0.389153  0.143056  1
  F  F23  1  0.248888  0.599898  0.311899  1
  F  F24  1  0.252641  0.610847  0.643056  1
  F  F25  1  0.248888  0.400102  0.811899  1
  F  F26  1  0.750712  0.376880  0.034268  1
  F  F27  1  0.745004  0.389522  0.363651  1
  F  F28  1  0.750712  0.623120  0.534268  1
  F  F29  1  0.745004  0.610478  0.863651  1
  F  F30  1  0.755668  0.123464  0.183224  1
  F  F31  1  0.775587  0.129938  0.516718  1
  F  F32  1  0.756487  0.877052  0.359089  1
  F  F33  1  0.775587  0.870062  0.016718  1
  F  F34  1  0.756487  0.122948  0.859089  1
  F  F35  1  0.755668  0.876536  0.683224  1
