# generated using pymatgen
data_V2OF5
_symmetry_space_group_name_H-M   'P 1'
_cell_length_a   8.79718476
_cell_length_b   4.87780708
_cell_length_c   4.85702015
_cell_angle_alpha   90.00000000
_cell_angle_beta   89.53959133
_cell_angle_gamma   90.00000000
_symmetry_Int_Tables_number   1
_chemical_formula_structural   V2OF5
_chemical_formula_sum   'V4 O2 F10'
_cell_volume   208.41271756
_cell_formula_units_Z   2
loop_
 _symmetry_equiv_pos_site_id
 _symmetry_equiv_pos_as_xyz
  1  'x, y, z'
loop_
 _atom_site_type_symbol
 _atom_site_label
 _atom_site_symmetry_multiplicity
 _atom_site_fract_x
 _atom_site_fract_y
 _atom_site_fract_z
 _atom_site_occupancy
  V  V0  1  0.173190  0.513544  0.490812  1
  V  V1  1  0.313013  0.989535  0.010437  1
  V  V2  1  0.673190  0.986456  0.990812  1
  V  V3  1  0.813013  0.510465  0.510437  1
  O  O4  1  0.192518  0.794501  0.207942  1
  O  O5  1  0.692518  0.705499  0.707942  1
  F  F6  1  0.182995  0.218746  0.780696  1
  F  F7  1  0.323541  0.289064  0.284818  1
  F  F8  1  0.326700  0.718508  0.714832  1
  F  F9  1  0.490542  0.169124  0.825474  1
  F  F10  1  0.499448  0.818229  0.182300  1
  F  F11  1  0.682995  0.281254  0.280696  1
  F  F12  1  0.826700  0.781492  0.214832  1
  F  F13  1  0.823541  0.210936  0.784818  1
  F  F14  1  0.990542  0.330876  0.325474  1
  F  F15  1  0.999448  0.681771  0.682300  1
