# generated using pymatgen
data_Al2CoO4
_symmetry_space_group_name_H-M   'P 1'
_cell_length_a   5.78186122
_cell_length_b   5.78186175
_cell_length_c   34.73154794
_cell_angle_alpha   60.03845164
_cell_angle_beta   60.03844861
_cell_angle_gamma   60.00000038
_symmetry_Int_Tables_number   1
_chemical_formula_structural   Al2CoO4
_chemical_formula_sum   'Al24 Co12 O48'
_cell_volume   821.47937883
_cell_formula_units_Z   12
loop_
 _symmetry_equiv_pos_site_id
 _symmetry_equiv_pos_as_xyz
  1  'x, y, z'
loop_
 _atom_site_type_symbol
 _atom_site_label
 _atom_site_symmetry_multiplicity
 _atom_site_fract_x
 _atom_site_fract_y
 _atom_site_fract_z
 _atom_site_occupancy
  Al  Al0  1  0.245044  0.245044  0.044145  1
  Al  Al1  1  0.118040  0.628524  0.104152  1
  Al  Al2  1  0.628524  0.118040  0.104152  1
  Al  Al3  1  0.248361  0.248361  0.209153  1
  Al  Al4  1  0.628524  0.628524  0.104152  1
  Al  Al5  1  0.121386  0.626636  0.270890  1
  Al  Al6  1  0.626636  0.121386  0.270890  1
  Al  Al7  1  0.626636  0.626636  0.270890  1
  Al  Al8  1  0.124555  0.625232  0.437497  1
  Al  Al9  1  0.624193  0.624193  0.354571  1
  Al  Al10  1  0.625232  0.124555  0.437497  1
  Al  Al11  1  0.625232  0.625232  0.437497  1
  Al  Al12  1  0.124579  0.624688  0.604341  1
  Al  Al13  1  0.624794  0.624794  0.520936  1
  Al  Al14  1  0.624688  0.124579  0.604341  1
  Al  Al15  1  0.624688  0.624688  0.604341  1
  Al  Al16  1  0.124288  0.624146  0.771236  1
  Al  Al17  1  0.624427  0.624427  0.687786  1
  Al  Al18  1  0.624146  0.124288  0.771236  1
  Al  Al19  1  0.624146  0.624146  0.771236  1
  Al  Al20  1  0.121583  0.627771  0.937146  1
  Al  Al21  1  0.627771  0.121583  0.937146  1
  Al  Al22  1  0.624632  0.624632  0.854351  1
  Al  Al23  1  0.627771  0.627771  0.937146  1
  Co  Co24  1  0.003500  0.003500  0.998250  1
  Co  Co25  1  0.627986  0.627986  0.019340  1
  Co  Co26  1  0.002333  0.002333  0.165500  1
  Co  Co27  1  0.625827  0.625827  0.187086  1
  Co  Co28  1  0.999647  0.999647  0.500177  1
  Co  Co29  1  0.000254  0.000254  0.333206  1
  Co  Co30  1  0.252044  0.252044  0.373978  1
  Co  Co31  1  0.250131  0.250131  0.541602  1
  Co  Co32  1  0.999196  0.999196  0.667069  1
  Co  Co33  1  0.249496  0.249496  0.708585  1
  Co  Co34  1  0.246527  0.246527  0.876736  1
  Co  Co35  1  0.001152  0.001152  0.832757  1
  O  O36  1  0.371312  0.371312  0.067145  1
  O  O37  1  0.380294  0.380294  0.143186  1
  O  O38  1  0.371312  0.854507  0.067145  1
  O  O39  1  0.854507  0.371312  0.067145  1
  O  O40  1  0.413610  0.873003  0.140064  1
  O  O41  1  0.366560  0.366560  0.233845  1
  O  O42  1  0.394565  0.394565  0.302718  1
  O  O43  1  0.873003  0.413610  0.140064  1
  O  O44  1  0.863585  0.863585  0.068207  1
  O  O45  1  0.366560  0.863810  0.233845  1
  O  O46  1  0.863810  0.366560  0.233845  1
  O  O47  1  0.873003  0.873003  0.140064  1
  O  O48  1  0.389247  0.389247  0.398050  1
  O  O49  1  0.419107  0.858259  0.310729  1
  O  O50  1  0.390183  0.390183  0.471576  1
  O  O51  1  0.858259  0.419107  0.310729  1
  O  O52  1  0.861078  0.861078  0.236128  1
  O  O53  1  0.389247  0.833203  0.398050  1
  O  O54  1  0.833203  0.389247  0.398050  1
  O  O55  1  0.858259  0.858259  0.310729  1
  O  O56  1  0.418717  0.860878  0.476588  1
  O  O57  1  0.389677  0.389677  0.564811  1
  O  O58  1  0.860878  0.418717  0.476588  1
  O  O59  1  0.860910  0.860910  0.402878  1
  O  O60  1  0.389474  0.389474  0.638596  1
  O  O61  1  0.389677  0.831781  0.564811  1
  O  O62  1  0.860878  0.860878  0.476588  1
  O  O63  1  0.831781  0.389677  0.564811  1
  O  O64  1  0.418330  0.860550  0.643428  1
  O  O65  1  0.389237  0.389237  0.731763  1
  O  O66  1  0.860509  0.860509  0.569746  1
  O  O67  1  0.387931  0.387931  0.806034  1
  O  O68  1  0.860550  0.418330  0.643428  1
  O  O69  1  0.389237  0.830948  0.731763  1
  O  O70  1  0.860550  0.860550  0.643428  1
  O  O71  1  0.830948  0.389237  0.731763  1
  O  O72  1  0.390956  0.390956  0.898757  1
  O  O73  1  0.418988  0.860315  0.810064  1
  O  O74  1  0.860366  0.860366  0.736484  1
  O  O75  1  0.375177  0.375177  0.979079  1
  O  O76  1  0.860315  0.418988  0.810064  1
  O  O77  1  0.390956  0.825543  0.898757  1
  O  O78  1  0.860315  0.860315  0.810064  1
  O  O79  1  0.825543  0.390956  0.898757  1
  O  O80  1  0.414419  0.875725  0.972356  1
  O  O81  1  0.875725  0.414419  0.972356  1
  O  O82  1  0.863557  0.863557  0.901555  1
  O  O83  1  0.875725  0.875725  0.972356  1
