# generated using pymatgen
data_Sr3YI9
_symmetry_space_group_name_H-M   'P 1'
_cell_length_a   8.35583838
_cell_length_b   32.98526378
_cell_length_c   7.71417001
_cell_angle_alpha   90.00000000
_cell_angle_beta   90.00000000
_cell_angle_gamma   91.70165716
_symmetry_Int_Tables_number   1
_chemical_formula_structural   Sr3YI9
_chemical_formula_sum   'Sr12 Y4 I36'
_cell_volume   2125.23829541
_cell_formula_units_Z   4
loop_
 _symmetry_equiv_pos_site_id
 _symmetry_equiv_pos_as_xyz
  1  'x, y, z'
loop_
 _atom_site_type_symbol
 _atom_site_label
 _atom_site_symmetry_multiplicity
 _atom_site_fract_x
 _atom_site_fract_y
 _atom_site_fract_z
 _atom_site_occupancy
  Sr  Sr0  1  0.329414  0.932883  0.967118  1
  Sr  Sr1  1  0.299075  0.691676  0.001264  1
  Sr  Sr2  1  0.329414  0.432883  0.032882  1
  Sr  Sr3  1  0.299075  0.191676  0.998736  1
  Sr  Sr4  1  0.676799  0.569283  0.984711  1
  Sr  Sr5  1  0.711225  0.809718  0.979732  1
  Sr  Sr6  1  0.676799  0.069283  0.015289  1
  Sr  Sr7  1  0.711225  0.309718  0.020268  1
  Sr  Sr8  1  0.789922  0.691763  0.527010  1
  Sr  Sr9  1  0.831034  0.931495  0.518015  1
  Sr  Sr10  1  0.789922  0.191763  0.472990  1
  Sr  Sr11  1  0.831034  0.431495  0.481985  1
  Y  Y12  1  0.198862  0.806838  0.519316  1
  Y  Y13  1  0.171161  0.566552  0.546728  1
  Y  Y14  1  0.198862  0.306838  0.480684  1
  Y  Y15  1  0.171161  0.066552  0.453272  1
  I  I16  1  0.017944  0.868579  0.798628  1
  I  I17  1  0.014797  0.752631  0.820277  1
  I  I18  1  0.008515  0.627428  0.815882  1
  I  I19  1  0.017944  0.368579  0.201372  1
  I  I20  1  0.014797  0.252631  0.179723  1
  I  I21  1  0.113171  0.993027  0.705267  1
  I  I22  1  0.008515  0.127428  0.184118  1
  I  I23  1  0.154374  0.893821  0.327430  1
  I  I24  1  0.113171  0.493028  0.294733  1
  I  I25  1  0.156878  0.706631  0.392289  1
  I  I26  1  0.154374  0.393821  0.672570  1
  I  I27  1  0.156878  0.206631  0.607711  1
  I  I28  1  0.358208  0.796448  0.167131  1
  I  I29  1  0.349296  0.598242  0.215756  1
  I  I30  1  0.358208  0.296448  0.832869  1
  I  I31  1  0.349296  0.098242  0.784243  1
  I  I32  1  0.405081  0.511773  0.744747  1
  I  I33  1  0.488291  0.866797  0.677206  1
  I  I34  1  0.486751  0.752021  0.690855  1
  I  I35  1  0.477050  0.628709  0.701138  1
  I  I36  1  0.405081  0.011773  0.255253  1
  I  I37  1  0.488291  0.366797  0.322794  1
  I  I38  1  0.486751  0.252021  0.309145  1
  I  I39  1  0.477050  0.128709  0.298862  1
  I  I40  1  0.610319  0.989090  0.765644  1
  I  I41  1  0.610319  0.489090  0.234356  1
  I  I42  1  0.657718  0.900830  0.157867  1
  I  I43  1  0.674115  0.698665  0.119461  1
  I  I44  1  0.657718  0.400830  0.842133  1
  I  I45  1  0.674115  0.198665  0.880539  1
  I  I46  1  0.855037  0.797753  0.384373  1
  I  I47  1  0.871998  0.598476  0.352018  1
  I  I48  1  0.855037  0.297753  0.615627  1
  I  I49  1  0.871998  0.098476  0.647982  1
  I  I50  1  0.923699  0.510686  0.753919  1
  I  I51  1  0.923699  0.010686  0.246081  1
