# generated using pymatgen
data_Fe4OF7
_symmetry_space_group_name_H-M   'P 1'
_cell_length_a   4.78544179
_cell_length_b   10.88396583
_cell_length_c   5.79010300
_cell_angle_alpha   82.15545019
_cell_angle_beta   90.00000000
_cell_angle_gamma   90.00000000
_symmetry_Int_Tables_number   1
_chemical_formula_structural   Fe4OF7
_chemical_formula_sum   'Fe8 O2 F14'
_cell_volume   298.75297662
_cell_formula_units_Z   2
loop_
 _symmetry_equiv_pos_site_id
 _symmetry_equiv_pos_as_xyz
  1  'x, y, z'
loop_
 _atom_site_type_symbol
 _atom_site_label
 _atom_site_symmetry_multiplicity
 _atom_site_fract_x
 _atom_site_fract_y
 _atom_site_fract_z
 _atom_site_occupancy
  Fe  Fe0  1  0.508628  0.503471  0.990459  1
  Fe  Fe1  1  0.505024  0.001208  0.514857  1
  Fe  Fe2  1  0.518725  0.235138  0.753739  1
  Fe  Fe3  1  0.501494  0.753767  0.246994  1
  Fe  Fe4  1  0.981275  0.735138  0.753739  1
  Fe  Fe5  1  0.994976  0.501208  0.514857  1
  Fe  Fe6  1  0.998506  0.253767  0.246994  1
  Fe  Fe7  1  0.991372  0.003471  0.990459  1
  O  O8  1  0.808478  0.582748  0.778572  1
  O  O9  1  0.691522  0.082748  0.778572  1
  F  F10  1  0.785600  0.325834  0.522536  1
  F  F11  1  0.801747  0.077963  0.279233  1
  F  F12  1  0.807556  0.817214  0.013700  1
  F  F13  1  0.714400  0.825834  0.522536  1
  F  F14  1  0.698253  0.577963  0.279233  1
  F  F15  1  0.692444  0.317214  0.013700  1
  F  F16  1  0.300559  0.929196  0.222249  1
  F  F17  1  0.306980  0.408906  0.722353  1
  F  F18  1  0.296470  0.184160  0.481875  1
  F  F19  1  0.293495  0.680396  0.973433  1
  F  F20  1  0.206505  0.180396  0.973433  1
  F  F21  1  0.193020  0.908906  0.722353  1
  F  F22  1  0.203530  0.684160  0.481875  1
  F  F23  1  0.199441  0.429196  0.222249  1
