# generated using pymatgen
data_Fe5O3F7
_symmetry_space_group_name_H-M   'P 1'
_cell_length_a   4.83426660
_cell_length_b   4.82493189
_cell_length_c   15.64883988
_cell_angle_alpha   90.00000000
_cell_angle_beta   89.80181942
_cell_angle_gamma   90.00000000
_symmetry_Int_Tables_number   1
_chemical_formula_structural   Fe5O3F7
_chemical_formula_sum   'Fe10 O6 F14'
_cell_volume   365.00711775
_cell_formula_units_Z   2
loop_
 _symmetry_equiv_pos_site_id
 _symmetry_equiv_pos_as_xyz
  1  'x, y, z'
loop_
 _atom_site_type_symbol
 _atom_site_label
 _atom_site_symmetry_multiplicity
 _atom_site_fract_x
 _atom_site_fract_y
 _atom_site_fract_z
 _atom_site_occupancy
  Fe  Fe0  1  0.003874  0.004497  -0.000472  1
  Fe  Fe1  1  0.977408  0.990079  0.194001  1
  Fe  Fe2  1  0.976259  0.979333  0.400015  1
  Fe  Fe3  1  0.042249  0.022418  0.607224  1
  Fe  Fe4  1  0.021566  0.974333  0.801752  1
  Fe  Fe5  1  0.542249  0.477582  0.107224  1
  Fe  Fe6  1  0.503874  0.495503  0.499528  1
  Fe  Fe7  1  0.521566  0.525667  0.301752  1
  Fe  Fe8  1  0.477408  0.509921  0.694001  1
  Fe  Fe9  1  0.476259  0.520667  0.900015  1
  O  O10  1  0.184335  0.820725  0.701035  1
  O  O11  1  0.174230  0.825481  0.903582  1
  O  O12  1  0.310399  0.309353  0.590619  1
  O  O13  1  0.684336  0.679275  0.201035  1
  O  O14  1  0.674230  0.674519  0.403582  1
  O  O15  1  0.810399  0.190647  0.090619  1
  F  F16  1  0.214860  0.784382  0.091828  1
  F  F17  1  0.194917  0.793026  0.298653  1
  F  F18  1  0.200852  0.802246  0.504119  1
  F  F19  1  0.308287  0.301276  0.006077  1
  F  F20  1  0.306828  0.296800  0.202105  1
  F  F21  1  0.297420  0.299695  0.398265  1
  F  F22  1  0.286514  0.300902  0.801199  1
  F  F23  1  0.700852  0.697754  0.004119  1
  F  F24  1  0.714860  0.715618  0.591828  1
  F  F25  1  0.694917  0.706974  0.798653  1
  F  F26  1  0.808287  0.198724  0.506077  1
  F  F27  1  0.786514  0.199098  0.301199  1
  F  F28  1  0.797420  0.200305  0.898265  1
  F  F29  1  0.806828  0.203200  0.702105  1
