# generated using pymatgen
data_Mn6O7F5
_symmetry_space_group_name_H-M   'P 1'
_cell_length_a   4.60070396
_cell_length_b   5.60435161
_cell_length_c   15.38665204
_cell_angle_alpha   90.00000000
_cell_angle_beta   90.16366599
_cell_angle_gamma   90.00000000
_symmetry_Int_Tables_number   1
_chemical_formula_structural   Mn6O7F5
_chemical_formula_sum   'Mn12 O14 F10'
_cell_volume   396.72724242
_cell_formula_units_Z   2
loop_
 _symmetry_equiv_pos_site_id
 _symmetry_equiv_pos_as_xyz
  1  'x, y, z'
loop_
 _atom_site_type_symbol
 _atom_site_label
 _atom_site_symmetry_multiplicity
 _atom_site_fract_x
 _atom_site_fract_y
 _atom_site_fract_z
 _atom_site_occupancy
  Mn  Mn0  1  0.054827  0.145880  0.411391  1
  Mn  Mn1  1  0.014193  0.831986  0.245475  1
  Mn  Mn2  1  0.985935  0.147866  0.079128  1
  Mn  Mn3  1  0.014193  0.168014  0.745475  1
  Mn  Mn4  1  0.985935  0.852134  0.579128  1
  Mn  Mn5  1  0.054827  0.854120  0.911391  1
  Mn  Mn6  1  0.497348  0.350583  0.585634  1
  Mn  Mn7  1  0.488819  0.352801  0.924338  1
  Mn  Mn8  1  0.489459  0.362521  0.254360  1
  Mn  Mn9  1  0.497348  0.649417  0.085634  1
  Mn  Mn10  1  0.488819  0.647199  0.424338  1
  Mn  Mn11  1  0.489459  0.637479  0.754360  1
  O  O12  1  0.231330  0.107414  0.302162  1
  O  O13  1  0.206214  0.108717  0.634939  1
  O  O14  1  0.239108  0.114256  0.968816  1
  O  O15  1  0.206214  0.891283  0.134939  1
  O  O16  1  0.239108  0.885744  0.468816  1
  O  O17  1  0.231330  0.892586  0.802162  1
  O  O18  1  0.286802  0.601724  0.316560  1
  O  O19  1  0.293425  0.386342  0.475895  1
  O  O20  1  0.286802  0.398276  0.816560  1
  O  O21  1  0.293425  0.613658  0.975895  1
  O  O22  1  0.718241  0.376295  0.029855  1
  O  O23  1  0.714088  0.616608  0.194685  1
  O  O24  1  0.718241  0.623705  0.529855  1
  O  O25  1  0.714088  0.383392  0.694685  1
  F  F26  1  0.227547  0.384577  0.141916  1
  F  F27  1  0.227547  0.615423  0.641916  1
  F  F28  1  0.765306  0.381842  0.367911  1
  F  F29  1  0.765306  0.618158  0.867911  1
  F  F30  1  0.736899  0.123805  0.193282  1
  F  F31  1  0.781115  0.116411  0.514966  1
  F  F32  1  0.769344  0.870965  0.358685  1
  F  F33  1  0.781115  0.883589  0.014966  1
  F  F34  1  0.769344  0.129035  0.858685  1
  F  F35  1  0.736899  0.876195  0.693282  1
