# generated using pymatgen
data_Ba8Ta7O24
_symmetry_space_group_name_H-M   'P 1'
_cell_length_a   5.91208899
_cell_length_b   5.91211857
_cell_length_c   19.18488986
_cell_angle_alpha   90.00233417
_cell_angle_beta   89.99823687
_cell_angle_gamma   120.00213639
_symmetry_Int_Tables_number   1
_chemical_formula_structural   Ba8Ta7O24
_chemical_formula_sum   'Ba8 Ta7 O24'
_cell_volume   580.71720104
_cell_formula_units_Z   1
loop_
 _symmetry_equiv_pos_site_id
 _symmetry_equiv_pos_as_xyz
  1  'x, y, z'
loop_
 _atom_site_type_symbol
 _atom_site_label
 _atom_site_symmetry_multiplicity
 _atom_site_fract_x
 _atom_site_fract_y
 _atom_site_fract_z
 _atom_site_occupancy
  Ba  Ba0  1  0.333228  0.666781  0.249870  1
  Ba  Ba1  1  0.333341  0.666687  0.852764  1
  Ba  Ba2  1  0.000025  0.999995  0.983126  1
  Ba  Ba3  1  0.000028  0.000013  0.503345  1
  Ba  Ba4  1  0.333414  0.666698  0.633484  1
  Ba  Ba5  1  0.666660  0.333351  0.131812  1
  Ba  Ba6  1  0.666691  0.333352  0.758174  1
  Ba  Ba7  1  0.666615  0.333333  0.365978  1
  Ta  Ta8  1  0.333350  0.666668  0.060934  1
  Ta  Ta9  1  0.999971  0.000014  0.183014  1
  Ta  Ta10  1  -0.000010  0.000017  0.318448  1
  Ta  Ta11  1  0.000034  0.000019  0.694778  1
  Ta  Ta12  1  0.333332  0.666665  0.438996  1
  Ta  Ta13  1  0.666675  0.333336  0.562614  1
  Ta  Ta14  1  0.666690  0.333315  0.936044  1
  O  O15  1  0.162387  0.837588  0.740255  1
  O  O16  1  0.004221  0.502105  0.008608  1
  O  O17  1  0.998179  0.499074  0.498456  1
  O  O18  1  0.170567  0.829439  0.127357  1
  O  O19  1  0.169595  0.830384  0.377279  1
  O  O20  1  0.170569  0.341151  0.127350  1
  O  O21  1  0.169627  0.339232  0.377277  1
  O  O22  1  0.162431  0.324832  0.740255  1
  O  O23  1  0.320915  0.160467  0.250477  1
  O  O24  1  0.660765  0.830384  0.377285  1
  O  O25  1  0.658864  0.829450  0.127347  1
  O  O26  1  0.497930  0.502083  0.008615  1
  O  O27  1  0.500901  0.499129  0.498479  1
  O  O28  1  0.339117  0.169553  0.619146  1
  O  O29  1  0.355694  0.177813  0.884165  1
  O  O30  1  0.675220  0.837634  0.740242  1
  O  O31  1  0.830484  0.660930  0.619152  1
  O  O32  1  0.497920  0.995829  0.008612  1
  O  O33  1  0.500922  0.001785  0.498475  1
  O  O34  1  0.822185  0.644325  0.884162  1
  O  O35  1  0.839469  0.679032  0.250476  1
  O  O36  1  0.822174  0.177768  0.884168  1
  O  O37  1  0.830481  0.169598  0.619158  1
  O  O38  1  0.839450  0.160470  0.250483  1
