# generated using pymatgen
data_K(WO3)4
_symmetry_space_group_name_H-M   'P 1'
_cell_length_a   7.51551797
_cell_length_b   7.51551766
_cell_length_c   15.45914930
_cell_angle_alpha   90.00000000
_cell_angle_beta   90.00000000
_cell_angle_gamma   120.00000023
_symmetry_Int_Tables_number   1
_chemical_formula_structural   K(WO3)4
_chemical_formula_sum   'K3 W12 O36'
_cell_volume   756.19541416
_cell_formula_units_Z   3
loop_
 _symmetry_equiv_pos_site_id
 _symmetry_equiv_pos_as_xyz
  1  'x, y, z'
loop_
 _atom_site_type_symbol
 _atom_site_label
 _atom_site_symmetry_multiplicity
 _atom_site_fract_x
 _atom_site_fract_y
 _atom_site_fract_z
 _atom_site_occupancy
  K  K0  1  0.000000  0.000000  0.250520  1
  K  K1  1  0.000000  0.000000  0.527302  1
  K  K2  1  0.000000  0.000000  0.804622  1
  W  W3  1  -0.000096  0.500442  0.376364  1
  W  W4  1  0.999800  0.499955  0.876734  1
  W  W5  1  0.000079  0.497907  0.125565  1
  W  W6  1  -0.000116  0.500225  0.626752  1
  W  W7  1  0.500045  0.499846  0.876734  1
  W  W8  1  0.499558  0.499462  0.376364  1
  W  W9  1  0.499776  0.499660  0.626752  1
  W  W10  1  0.502093  0.502173  0.125565  1
  W  W11  1  0.500340  0.000116  0.626752  1
  W  W12  1  0.497827  -0.000079  0.125565  1
  W  W13  1  0.500154  0.000200  0.876734  1
  W  W14  1  0.500538  0.000096  0.376364  1
  O  O15  1  0.986076  0.492310  0.001471  1
  O  O16  1  0.985063  0.492603  0.500674  1
  O  O17  1  0.211205  0.786660  0.123425  1
  O  O18  1  0.210586  0.789332  0.620976  1
  O  O19  1  0.211324  0.788503  0.879002  1
  O  O20  1  0.210917  0.789582  0.381139  1
  O  O21  1  0.211497  0.422820  0.879002  1
  O  O22  1  0.210418  0.421336  0.381139  1
  O  O23  1  0.210668  0.421253  0.620976  1
  O  O24  1  0.213340  0.424545  0.123425  1
  O  O25  1  0.506234  0.013924  0.001471  1
  O  O26  1  0.507541  0.014937  0.500674  1
  O  O27  1  0.577180  0.788676  0.879002  1
  O  O28  1  0.578664  0.789083  0.381139  1
  O  O29  1  0.575455  0.788795  0.123425  1
  O  O30  1  0.578747  0.789414  0.620976  1
  O  O31  1  0.507397  0.492459  0.500674  1
  O  O32  1  0.507690  0.493766  0.001471  1
  O  O33  1  0.493306  0.507964  0.252083  1
  O  O34  1  0.493000  0.507014  0.750419  1
  O  O35  1  0.421341  0.210355  0.372074  1
  O  O36  1  0.422642  0.211419  0.870914  1
  O  O37  1  0.424077  0.212817  0.131784  1
  O  O38  1  0.421117  0.210530  0.629693  1
  O  O39  1  0.492036  0.985341  0.252083  1
  O  O40  1  0.492986  0.985985  0.750419  1
  O  O41  1  0.789013  0.578659  0.372074  1
  O  O42  1  0.788777  0.577358  0.870914  1
  O  O43  1  0.788739  0.575923  0.131784  1
  O  O44  1  0.789413  0.578883  0.629693  1
  O  O45  1  0.787183  0.211261  0.131784  1
  O  O46  1  0.789470  0.210587  0.629693  1
  O  O47  1  0.789645  0.210987  0.372074  1
  O  O48  1  0.788581  0.211223  0.870914  1
  O  O49  1  0.014659  0.506694  0.252083  1
  O  O50  1  0.014015  0.507000  0.750419  1
