# generated using pymatgen
data_Mn4O7F
_symmetry_space_group_name_H-M   'P 1'
_cell_length_a   4.47031049
_cell_length_b   10.98991960
_cell_length_c   4.97923031
_cell_angle_alpha   90.00000000
_cell_angle_beta   89.79018766
_cell_angle_gamma   90.00000000
_symmetry_Int_Tables_number   1
_chemical_formula_structural   Mn4O7F
_chemical_formula_sum   'Mn8 O14 F2'
_cell_volume   244.61974328
_cell_formula_units_Z   2
loop_
 _symmetry_equiv_pos_site_id
 _symmetry_equiv_pos_as_xyz
  1  'x, y, z'
loop_
 _atom_site_type_symbol
 _atom_site_label
 _atom_site_symmetry_multiplicity
 _atom_site_fract_x
 _atom_site_fract_y
 _atom_site_fract_z
 _atom_site_occupancy
  Mn  Mn0  1  0.013818  0.416382  0.752342  1
  Mn  Mn1  1  0.013818  0.083618  0.252342  1
  Mn  Mn2  1  0.005693  0.572030  0.235015  1
  Mn  Mn3  1  0.005693  0.927970  0.735015  1
  Mn  Mn4  1  0.484517  0.817369  0.260143  1
  Mn  Mn5  1  0.509083  0.175979  0.753007  1
  Mn  Mn6  1  0.509083  0.324021  0.253007  1
  Mn  Mn7  1  0.484517  0.682631  0.760143  1
  O  O8  1  0.234649  0.055335  0.919593  1
  O  O9  1  0.234649  0.444665  0.419593  1
  O  O10  1  0.230533  0.556923  0.913943  1
  O  O11  1  0.230533  0.943077  0.413943  1
  O  O12  1  0.278857  0.198001  0.429500  1
  O  O13  1  0.278857  0.301999  0.929500  1
  O  O14  1  0.256384  0.694387  0.425936  1
  O  O15  1  0.256384  0.805613  0.925936  1
  O  O16  1  0.738172  0.195157  0.080504  1
  O  O17  1  0.738172  0.304843  0.580504  1
  O  O18  1  0.723981  0.694146  0.079617  1
  O  O19  1  0.723981  0.805854  0.579617  1
  O  O20  1  0.770501  0.056073  0.573297  1
  O  O21  1  0.770501  0.443927  0.073297  1
  F  F22  1  0.753813  0.560748  0.577104  1
  F  F23  1  0.753813  0.939252  0.077104  1
