# generated using pymatgen
data_LiVF6
_symmetry_space_group_name_H-M   'P 1'
_cell_length_a   5.68537954
_cell_length_b   5.68560590
_cell_length_c   4.84209403
_cell_angle_alpha   90.23157874
_cell_angle_beta   90.23108022
_cell_angle_gamma   60.47009512
_symmetry_Int_Tables_number   1
_chemical_formula_structural   LiVF6
_chemical_formula_sum   'Li1 V1 F6'
_cell_volume   136.18621313
_cell_formula_units_Z   1
loop_
 _symmetry_equiv_pos_site_id
 _symmetry_equiv_pos_as_xyz
  1  'x, y, z'
loop_
 _atom_site_type_symbol
 _atom_site_label
 _atom_site_symmetry_multiplicity
 _atom_site_fract_x
 _atom_site_fract_y
 _atom_site_fract_z
 _atom_site_occupancy
  Li  Li0  1  0.664645  0.664589  0.700109  1
  V  V1  1  0.999957  0.999901  0.014503  1
  F  F2  1  0.150603  0.150602  0.217430  1
  F  F3  1  0.148535  0.699525  0.214480  1
  F  F4  1  0.299369  0.851288  0.783552  1
  F  F5  1  0.699490  0.148537  0.214503  1
  F  F6  1  0.851293  0.299339  0.783543  1
  F  F7  1  0.849362  0.849352  0.780622  1
