# generated using pymatgen
data_Zr5Ti7O24
_symmetry_space_group_name_H-M   'P 1'
_cell_length_a   14.54742263
_cell_length_b   5.41220965
_cell_length_c   10.13648593
_cell_angle_alpha   89.92055139
_cell_angle_beta   90.00000000
_cell_angle_gamma   90.00000000
_symmetry_Int_Tables_number   1
_chemical_formula_structural   Zr5Ti7O24
_chemical_formula_sum   'Zr10 Ti14 O48'
_cell_volume   798.08228699
_cell_formula_units_Z   2
loop_
 _symmetry_equiv_pos_site_id
 _symmetry_equiv_pos_as_xyz
  1  'x, y, z'
loop_
 _atom_site_type_symbol
 _atom_site_label
 _atom_site_symmetry_multiplicity
 _atom_site_fract_x
 _atom_site_fract_y
 _atom_site_fract_z
 _atom_site_occupancy
  Zr  Zr0  1  0.998378  0.262894  0.125368  1
  Zr  Zr1  1  0.995730  0.266174  0.621967  1
  Zr  Zr2  1  0.994491  0.732016  0.371723  1
  Zr  Zr3  1  0.997318  0.735211  0.875762  1
  Zr  Zr4  1  0.169612  0.801875  0.592388  1
  Zr  Zr5  1  0.330388  0.301875  0.092388  1
  Zr  Zr6  1  0.502682  0.235211  0.375762  1
  Zr  Zr7  1  0.504270  0.766174  0.121967  1
  Zr  Zr8  1  0.501622  0.762894  0.625368  1
  Zr  Zr9  1  0.505509  0.232016  0.871723  1
  Ti  Ti10  1  0.165651  0.192583  0.344446  1
  Ti  Ti11  1  0.165971  0.191694  0.842091  1
  Ti  Ti12  1  0.165747  0.813816  0.094485  1
  Ti  Ti13  1  0.334253  0.313816  0.594485  1
  Ti  Ti14  1  0.334029  0.691694  0.342091  1
  Ti  Ti15  1  0.334349  0.692583  0.844446  1
  Ti  Ti16  1  0.669590  0.315126  0.159256  1
  Ti  Ti17  1  0.670294  0.316254  0.658561  1
  Ti  Ti18  1  0.671455  0.681472  0.908639  1
  Ti  Ti19  1  0.669228  0.684158  0.409228  1
  Ti  Ti20  1  0.828545  0.181472  0.408639  1
  Ti  Ti21  1  0.830772  0.184158  0.909228  1
  Ti  Ti22  1  0.829706  0.816254  0.158561  1
  Ti  Ti23  1  0.830410  0.815126  0.659256  1
  O  O24  1  0.078988  0.588531  0.031930  1
  O  O25  1  0.070350  0.572499  0.527267  1
  O  O26  1  0.078018  0.413817  0.280602  1
  O  O27  1  0.081596  0.421444  0.778456  1
  O  O28  1  0.083512  0.070074  0.483060  1
  O  O29  1  0.081451  0.925295  0.235572  1
  O  O30  1  0.082472  0.938749  0.739938  1
  O  O31  1  0.087229  0.073908  0.986874  1
  O  O32  1  0.227515  0.118206  0.182009  1
  O  O33  1  0.240670  0.129967  0.679661  1
  O  O34  1  0.242608  0.884780  0.419404  1
  O  O35  1  0.242608  0.881660  0.931547  1
  O  O36  1  0.259330  0.629967  0.179661  1
  O  O37  1  0.272485  0.618206  0.682009  1
  O  O38  1  0.257392  0.384780  0.919404  1
  O  O39  1  0.257392  0.381660  0.431547  1
  O  O40  1  0.417528  0.438749  0.239938  1
  O  O41  1  0.412771  0.573908  0.486874  1
  O  O42  1  0.418549  0.425295  0.735572  1
  O  O43  1  0.416488  0.570074  0.983060  1
  O  O44  1  0.429650  0.072499  0.027267  1
  O  O45  1  0.421012  0.088531  0.531930  1
  O  O46  1  0.418404  0.921444  0.278456  1
  O  O47  1  0.421982  0.913817  0.780602  1
  O  O48  1  0.582359  0.087469  0.216813  1
  O  O49  1  0.583749  0.084109  0.713795  1
  O  O50  1  0.581303  0.910540  0.465213  1
  O  O51  1  0.586896  0.911847  0.965246  1
  O  O52  1  0.588759  0.430094  0.015406  1
  O  O53  1  0.587780  0.429093  0.514793  1
  O  O54  1  0.589857  0.572203  0.264291  1
  O  O55  1  0.589543  0.569213  0.764603  1
  O  O56  1  0.738091  0.370146  0.325165  1
  O  O57  1  0.739438  0.369051  0.824481  1
  O  O58  1  0.739956  0.626233  0.074695  1
  O  O59  1  0.738806  0.627799  0.575265  1
  O  O60  1  0.761194  0.127799  0.075265  1
  O  O61  1  0.760044  0.126233  0.574695  1
  O  O62  1  0.760562  0.869051  0.324481  1
  O  O63  1  0.761909  0.870146  0.825165  1
  O  O64  1  0.910457  0.069213  0.264603  1
  O  O65  1  0.910143  0.072203  0.764291  1
  O  O66  1  0.912220  0.929093  0.014793  1
  O  O67  1  0.911241  0.930094  0.515406  1
  O  O68  1  0.918697  0.410540  0.965213  1
  O  O69  1  0.913104  0.411847  0.465246  1
  O  O70  1  0.916251  0.584109  0.213795  1
  O  O71  1  0.917641  0.587469  0.716813  1
