# generated using pymatgen
data_LiV2F7
_symmetry_space_group_name_H-M   'P 1'
_cell_length_a   10.18393454
_cell_length_b   7.14814105
_cell_length_c   7.82071435
_cell_angle_alpha   90.00000000
_cell_angle_beta   89.14064230
_cell_angle_gamma   90.00000000
_symmetry_Int_Tables_number   1
_chemical_formula_structural   LiV2F7
_chemical_formula_sum   'Li4 V8 F28'
_cell_volume   569.25425496
_cell_formula_units_Z   4
loop_
 _symmetry_equiv_pos_site_id
 _symmetry_equiv_pos_as_xyz
  1  'x, y, z'
loop_
 _atom_site_type_symbol
 _atom_site_label
 _atom_site_symmetry_multiplicity
 _atom_site_fract_x
 _atom_site_fract_y
 _atom_site_fract_z
 _atom_site_occupancy
  Li  Li0  1  0.351145  0.657816  0.695664  1
  Li  Li1  1  0.355461  0.143233  0.171290  1
  Li  Li2  1  0.851145  0.842184  0.695664  1
  Li  Li3  1  0.855461  0.356767  0.171290  1
  V  V4  1  0.082766  0.133831  0.881743  1
  V  V5  1  0.092069  0.632858  0.397645  1
  V  V6  1  0.408164  0.141535  0.603489  1
  V  V7  1  0.420645  0.640517  0.118428  1
  V  V8  1  0.582766  0.366169  0.881743  1
  V  V9  1  0.592069  0.867142  0.397645  1
  V  V10  1  0.908164  0.358465  0.603489  1
  V  V11  1  0.920645  0.859483  0.118428  1
  F  F12  1  0.025186  0.384919  0.806258  1
  F  F13  1  0.065330  0.869180  0.937666  1
  F  F14  1  0.052601  0.884086  0.305203  1
  F  F15  1  0.070086  0.367889  0.451986  1
  F  F16  1  0.189130  0.688512  0.590544  1
  F  F17  1  0.199502  0.189049  0.055602  1
  F  F18  1  0.240595  0.109666  0.724808  1
  F  F19  1  0.264057  0.609728  0.264087  1
  F  F20  1  0.317694  0.704715  0.930008  1
  F  F21  1  0.320922  0.197741  0.400888  1
  F  F22  1  0.427380  0.861260  0.553930  1
  F  F23  1  0.443997  0.413965  0.686808  1
  F  F24  1  0.434944  0.362640  0.063125  1
  F  F25  1  0.463175  0.912681  0.191326  1
  F  F26  1  0.525186  0.115081  0.806258  1
  F  F27  1  0.565330  0.630820  0.937666  1
  F  F28  1  0.552601  0.615914  0.305203  1
  F  F29  1  0.570086  0.132111  0.451986  1
  F  F30  1  0.689130  0.811488  0.590544  1
  F  F31  1  0.699502  0.310951  0.055602  1
  F  F32  1  0.740595  0.390334  0.724808  1
  F  F33  1  0.764057  0.890272  0.264087  1
  F  F34  1  0.817694  0.795285  0.930008  1
  F  F35  1  0.820922  0.302259  0.400888  1
  F  F36  1  0.927381  0.638740  0.553930  1
  F  F37  1  0.943997  0.086036  0.686808  1
  F  F38  1  0.934944  0.137360  0.063125  1
  F  F39  1  0.963175  0.587319  0.191326  1
