# generated using pymatgen
data_Mn6OF11
_symmetry_space_group_name_H-M   'P 1'
_cell_length_a   4.96352216
_cell_length_b   5.88020504
_cell_length_c   16.22273375
_cell_angle_alpha   90.00000000
_cell_angle_beta   90.00000000
_cell_angle_gamma   89.04640875
_symmetry_Int_Tables_number   1
_chemical_formula_structural   Mn6OF11
_chemical_formula_sum   'Mn12 O2 F22'
_cell_volume   473.41969714
_cell_formula_units_Z   2
loop_
 _symmetry_equiv_pos_site_id
 _symmetry_equiv_pos_as_xyz
  1  'x, y, z'
loop_
 _atom_site_type_symbol
 _atom_site_label
 _atom_site_symmetry_multiplicity
 _atom_site_fract_x
 _atom_site_fract_y
 _atom_site_fract_z
 _atom_site_occupancy
  Mn  Mn0  1  0.003524  0.169916  0.416898  1
  Mn  Mn1  1  0.007296  0.830439  0.245585  1
  Mn  Mn2  1  0.981321  0.180077  0.077424  1
  Mn  Mn3  1  0.013591  0.146453  0.754482  1
  Mn  Mn4  1  0.997928  0.828072  0.584903  1
  Mn  Mn5  1  0.012026  0.831735  0.911126  1
  Mn  Mn6  1  0.507296  0.330439  0.587748  1
  Mn  Mn7  1  0.512026  0.331735  0.922207  1
  Mn  Mn8  1  0.497928  0.328072  0.248430  1
  Mn  Mn9  1  0.513591  0.646453  0.078852  1
  Mn  Mn10  1  0.503524  0.669916  0.416435  1
  Mn  Mn11  1  0.481321  0.680077  0.755909  1
  O  O12  1  0.210347  0.906345  0.801246  1
  O  O13  1  0.710347  0.406345  0.032087  1
  F  F14  1  0.232103  0.101416  0.305772  1
  F  F15  1  0.219413  0.112381  0.642615  1
  F  F16  1  0.218913  0.113926  0.973457  1
  F  F17  1  0.250232  0.879879  0.132910  1
  F  F18  1  0.230641  0.894153  0.475784  1
  F  F19  1  0.261031  0.396311  0.140451  1
  F  F20  1  0.267960  0.603742  0.307139  1
  F  F21  1  0.274424  0.394188  0.475389  1
  F  F22  1  0.280150  0.606315  0.642398  1
  F  F23  1  0.267745  0.388405  0.809595  1
  F  F24  1  0.271357  0.616246  0.976477  1
  F  F25  1  0.719413  0.612381  0.190719  1
  F  F26  1  0.730641  0.394153  0.357549  1
  F  F27  1  0.732103  0.601416  0.527561  1
  F  F28  1  0.718913  0.613926  0.859877  1
  F  F29  1  0.750232  0.379879  0.700423  1
  F  F30  1  0.780150  0.106315  0.190936  1
  F  F31  1  0.767960  0.103742  0.526194  1
  F  F32  1  0.774424  0.894188  0.357944  1
  F  F33  1  0.767745  0.888405  0.023738  1
  F  F34  1  0.771357  0.116246  0.856856  1
  F  F35  1  0.761031  0.896311  0.692882  1
