# generated using pymatgen
data_Na4CoO4
_symmetry_space_group_name_H-M   'P 1'
_cell_length_a   10.07274707
_cell_length_b   6.04844241
_cell_length_c   17.83544612
_cell_angle_alpha   90.00000000
_cell_angle_beta   91.08063326
_cell_angle_gamma   90.00000000
_symmetry_Int_Tables_number   1
_chemical_formula_structural   Na4CoO4
_chemical_formula_sum   'Na32 Co8 O32'
_cell_volume   1086.42113762
_cell_formula_units_Z   8
loop_
 _symmetry_equiv_pos_site_id
 _symmetry_equiv_pos_as_xyz
  1  'x, y, z'
loop_
 _atom_site_type_symbol
 _atom_site_label
 _atom_site_symmetry_multiplicity
 _atom_site_fract_x
 _atom_site_fract_y
 _atom_site_fract_z
 _atom_site_occupancy
  Na  Na0  1  0.146039  0.161825  0.856600  1
  Na  Na1  1  0.146039  0.338175  0.356600  1
  Na  Na2  1  0.199803  0.637850  0.142826  1
  Na  Na3  1  0.199803  0.862150  0.642826  1
  Na  Na4  1  0.255607  0.562582  0.789711  1
  Na  Na5  1  0.255607  0.937418  0.289711  1
  Na  Na6  1  0.328395  0.088642  0.502379  1
  Na  Na7  1  0.328395  0.411358  0.002379  1
  Na  Na8  1  0.387348  0.347039  0.235843  1
  Na  Na9  1  0.387348  0.152961  0.735843  1
  Na  Na10  1  0.363246  0.873343  0.918909  1
  Na  Na11  1  0.363246  0.626657  0.418909  1
  Na  Na12  1  0.547828  0.069434  0.057560  1
  Na  Na13  1  0.547828  0.430566  0.557560  1
  Na  Na14  1  0.591616  0.871801  0.254383  1
  Na  Na15  1  0.591616  0.628199  0.754383  1
  Na  Na16  1  0.650668  0.592580  0.003197  1
  Na  Na17  1  0.650668  0.907420  0.503197  1
  Na  Na18  1  0.686526  0.105345  0.676991  1
  Na  Na19  1  0.686526  0.394655  0.176991  1
  Na  Na20  1  0.693842  0.559652  0.372456  1
  Na  Na21  1  0.693842  0.940348  0.872456  1
  Na  Na22  1  0.802131  0.086147  0.366136  1
  Na  Na23  1  0.802131  0.413853  0.866136  1
  Na  Na24  1  0.846775  0.586077  0.674560  1
  Na  Na25  1  0.846775  0.913923  0.174560  1
  Na  Na26  1  0.901715  0.414361  0.507065  1
  Na  Na27  1  0.901715  0.085639  0.007065  1
  Na  Na28  1  0.949194  0.057268  0.746026  1
  Na  Na29  1  0.949194  0.442732  0.246026  1
  Na  Na30  1  0.976459  0.913391  0.546650  1
  Na  Na31  1  0.976459  0.586609  0.046650  1
  Co  Co32  1  0.069271  0.182620  0.133215  1
  Co  Co33  1  0.069271  0.317380  0.633215  1
  Co  Co34  1  0.475031  0.670575  0.124350  1
  Co  Co35  1  0.475031  0.829425  0.624350  1
  Co  Co36  1  0.528893  0.159172  0.376081  1
  Co  Co37  1  0.528893  0.340828  0.876081  1
  Co  Co38  1  0.953611  0.690831  0.374330  1
  Co  Co39  1  0.953611  0.809169  0.874330  1
  O  O40  1  0.043631  0.893292  0.115368  1
  O  O41  1  0.043631  0.606708  0.615368  1
  O  O42  1  0.151474  0.266275  0.220809  1
  O  O43  1  0.151474  0.233725  0.720809  1
  O  O44  1  0.136449  0.168777  0.556655  1
  O  O45  1  0.136449  0.331223  0.056655  1
  O  O46  1  0.129057  0.764822  0.870507  1
  O  O47  1  0.129057  0.735178  0.370507  1
  O  O48  1  0.357438  0.246401  0.376013  1
  O  O49  1  0.357438  0.253599  0.876013  1
  O  O50  1  0.399700  0.773428  0.040284  1
  O  O51  1  0.399700  0.726572  0.540284  1
  O  O52  1  0.388503  0.765290  0.709692  1
  O  O53  1  0.388503  0.734710  0.209692  1
  O  O54  1  0.482337  0.375278  0.115093  1
  O  O55  1  0.482337  0.124722  0.615093  1
  O  O56  1  0.540384  0.638415  0.881268  1
  O  O57  1  0.540384  0.861585  0.381268  1
  O  O58  1  0.610178  0.248803  0.290484  1
  O  O59  1  0.610178  0.251197  0.790484  1
  O  O60  1  0.628980  0.228678  0.952400  1
  O  O61  1  0.628980  0.271322  0.452400  1
  O  O62  1  0.646500  0.726090  0.630145  1
  O  O63  1  0.646500  0.773910  0.130145  1
  O  O64  1  0.891828  0.213378  0.633944  1
  O  O65  1  0.891828  0.286622  0.133944  1
  O  O66  1  0.855531  0.789178  0.452118  1
  O  O67  1  0.855531  0.710822  0.952118  1
  O  O68  1  0.852631  0.728435  0.792018  1
  O  O69  1  0.852631  0.771565  0.292018  1
  O  O70  1  0.929786  0.391148  0.376406  1
  O  O71  1  0.929786  0.108852  0.876406  1
