# generated using pymatgen
data_Na6V2O7
_symmetry_space_group_name_H-M   'P 1'
_cell_length_a   6.01439429
_cell_length_b   8.44637948
_cell_length_c   8.99401968
_cell_angle_alpha   90.00000000
_cell_angle_beta   91.95823427
_cell_angle_gamma   90.00000000
_symmetry_Int_Tables_number   1
_chemical_formula_structural   Na6V2O7
_chemical_formula_sum   'Na12 V4 O14'
_cell_volume   456.62808283
_cell_formula_units_Z   2
loop_
 _symmetry_equiv_pos_site_id
 _symmetry_equiv_pos_as_xyz
  1  'x, y, z'
loop_
 _atom_site_type_symbol
 _atom_site_label
 _atom_site_symmetry_multiplicity
 _atom_site_fract_x
 _atom_site_fract_y
 _atom_site_fract_z
 _atom_site_occupancy
  Na  Na0  1  0.145836  0.045678  0.720488  1
  Na  Na1  1  0.119971  0.915529  0.049105  1
  Na  Na2  1  0.251854  0.779168  0.459617  1
  Na  Na3  1  0.254111  0.274424  0.036784  1
  Na  Na4  1  0.373622  0.540339  0.768782  1
  Na  Na5  1  0.366249  0.416983  0.450286  1
  Na  Na6  1  0.619971  0.084471  0.549105  1
  Na  Na7  1  0.645836  0.954322  0.220488  1
  Na  Na8  1  0.751854  0.220832  0.959617  1
  Na  Na9  1  0.754111  0.725576  0.536784  1
  Na  Na10  1  0.866249  0.583017  0.950286  1
  Na  Na11  1  0.873622  0.459661  0.268782  1
  V  V12  1  0.074190  0.097127  0.361786  1
  V  V13  1  0.435138  0.607867  0.145484  1
  V  V14  1  0.574190  0.902873  0.861786  1
  V  V15  1  0.935138  0.392133  0.645484  1
  O  O16  1  0.046891  0.368195  0.829841  1
  O  O17  1  0.068436  0.243472  0.518087  1
  O  O18  1  0.068482  0.564015  0.559591  1
  O  O19  1  0.140071  0.606628  0.126192  1
  O  O20  1  0.365456  0.051621  0.349560  1
  O  O21  1  0.407946  0.059955  0.930607  1
  O  O22  1  0.466807  0.843487  0.678417  1
  O  O23  1  0.546891  0.631805  0.329841  1
  O  O24  1  0.568436  0.756528  0.018087  1
  O  O25  1  0.568482  0.435985  0.059591  1
  O  O26  1  0.640071  0.393372  0.626192  1
  O  O27  1  0.865456  0.948379  0.849560  1
  O  O28  1  0.907946  0.940045  0.430607  1
  O  O29  1  0.966807  0.156513  0.178417  1
