# generated using pymatgen
data_Al2FeO4
_symmetry_space_group_name_H-M   'P 1'
_cell_length_a   5.83024556
_cell_length_b   5.83024573
_cell_length_c   35.10984682
_cell_angle_alpha   60.12087813
_cell_angle_beta   60.12087585
_cell_angle_gamma   59.99999709
_symmetry_Int_Tables_number   1
_chemical_formula_structural   Al2FeO4
_chemical_formula_sum   'Al24 Fe12 O48'
_cell_volume   845.43203882
_cell_formula_units_Z   12
loop_
 _symmetry_equiv_pos_site_id
 _symmetry_equiv_pos_as_xyz
  1  'x, y, z'
loop_
 _atom_site_type_symbol
 _atom_site_label
 _atom_site_symmetry_multiplicity
 _atom_site_fract_x
 _atom_site_fract_y
 _atom_site_fract_z
 _atom_site_occupancy
  Al  Al0  1  0.497123  0.497123  0.082747  1
  Al  Al1  1  0.497123  0.009267  0.082747  1
  Al  Al2  1  0.009267  0.497123  0.082747  1
  Al  Al3  1  0.493625  0.493625  0.251516  1
  Al  Al4  1  0.880807  0.880807  0.142929  1
  Al  Al5  1  0.498152  0.498152  0.334257  1
  Al  Al6  1  0.498488  0.996670  0.417726  1
  Al  Al7  1  0.493625  0.003652  0.251516  1
  Al  Al8  1  0.003652  0.493625  0.251516  1
  Al  Al9  1  0.498488  0.498488  0.417726  1
  Al  Al10  1  0.499020  0.499020  0.500490  1
  Al  Al11  1  0.499781  0.001477  0.583160  1
  Al  Al12  1  0.996670  0.498488  0.417726  1
  Al  Al13  1  0.499781  0.499781  0.583160  1
  Al  Al14  1  0.500471  0.500471  0.666432  1
  Al  Al15  1  0.500842  0.000143  0.749695  1
  Al  Al16  1  0.001477  0.499781  0.583160  1
  Al  Al17  1  0.500842  0.500842  0.749695  1
  Al  Al18  1  0.501289  0.006496  0.915155  1
  Al  Al19  1  0.504169  0.504169  0.831248  1
  Al  Al20  1  0.000143  0.500842  0.749695  1
  Al  Al21  1  0.501289  0.501289  0.915155  1
  Al  Al22  1  0.006496  0.501289  0.915155  1
  Al  Al23  1  0.878907  0.878907  0.977213  1
  Fe  Fe24  1  0.127052  0.127052  0.019807  1
  Fe  Fe25  1  0.501632  0.501632  0.999184  1
  Fe  Fe26  1  0.114507  0.114507  0.192746  1
  Fe  Fe27  1  0.497681  0.497681  0.167826  1
  Fe  Fe28  1  0.114754  0.114754  0.359290  1
  Fe  Fe29  1  0.123758  0.123758  0.521454  1
  Fe  Fe30  1  0.882479  0.882479  0.308760  1
  Fe  Fe31  1  0.119383  0.119383  0.690309  1
  Fe  Fe32  1  0.874180  0.874180  0.479577  1
  Fe  Fe33  1  0.123411  0.123411  0.854962  1
  Fe  Fe34  1  0.881313  0.881313  0.642677  1
  Fe  Fe35  1  0.875706  0.875706  0.812147  1
  O  O36  1  0.252521  0.252521  0.046718  1
  O  O37  1  0.265851  0.265851  0.117074  1
  O  O38  1  0.252521  0.714647  0.046718  1
  O  O39  1  0.714647  0.252521  0.046718  1
  O  O40  1  0.247613  0.247613  0.216694  1
  O  O41  1  0.270286  0.757051  0.119268  1
  O  O42  1  0.260625  0.260625  0.286354  1
  O  O43  1  0.746117  0.746117  0.043609  1
  O  O44  1  0.757051  0.270286  0.119268  1
  O  O45  1  0.247613  0.704607  0.216694  1
  O  O46  1  0.704607  0.247613  0.216694  1
  O  O47  1  0.757051  0.757051  0.119268  1
  O  O48  1  0.264709  0.264709  0.378585  1
  O  O49  1  0.303397  0.730916  0.289129  1
  O  O50  1  0.263874  0.263874  0.451396  1
  O  O51  1  0.751322  0.751322  0.207672  1
  O  O52  1  0.730916  0.303397  0.289129  1
  O  O53  1  0.264709  0.699074  0.378585  1
  O  O54  1  0.699074  0.264709  0.378585  1
  O  O55  1  0.730916  0.730916  0.289129  1
  O  O56  1  0.265341  0.265341  0.544315  1
  O  O57  1  0.295061  0.732757  0.456571  1
  O  O58  1  0.732410  0.732410  0.383795  1
  O  O59  1  0.266926  0.266926  0.616537  1
  O  O60  1  0.732757  0.295061  0.456571  1
  O  O61  1  0.265341  0.703425  0.544315  1
  O  O62  1  0.703425  0.265341  0.544315  1
  O  O63  1  0.732757  0.732757  0.456571  1
  O  O64  1  0.267065  0.267065  0.710458  1
  O  O65  1  0.298161  0.733938  0.622327  1
  O  O66  1  0.267919  0.267919  0.782707  1
  O  O67  1  0.733938  0.298161  0.622327  1
  O  O68  1  0.267065  0.703121  0.710458  1
  O  O69  1  0.733936  0.733936  0.549699  1
  O  O70  1  0.703121  0.267065  0.710458  1
  O  O71  1  0.733938  0.733938  0.622327  1
  O  O72  1  0.269120  0.269120  0.876570  1
  O  O73  1  0.297649  0.734718  0.788819  1
  O  O74  1  0.733761  0.733761  0.716453  1
  O  O75  1  0.734718  0.297649  0.788819  1
  O  O76  1  0.265716  0.265716  0.950475  1
  O  O77  1  0.269120  0.702342  0.876570  1
  O  O78  1  0.702342  0.269120  0.876570  1
  O  O79  1  0.734718  0.734718  0.788819  1
  O  O80  1  0.260894  0.760677  0.952959  1
  O  O81  1  0.728637  0.728637  0.885681  1
  O  O82  1  0.760677  0.260894  0.952959  1
  O  O83  1  0.760677  0.760677  0.952959  1
