# generated using pymatgen
data_Li2MnF4
_symmetry_space_group_name_H-M   'P 1'
_cell_length_a   5.23691721
_cell_length_b   3.23813636
_cell_length_c   9.79881538
_cell_angle_alpha   90.07604996
_cell_angle_beta   83.20339388
_cell_angle_gamma   90.05149850
_symmetry_Int_Tables_number   1
_chemical_formula_structural   Li2MnF4
_chemical_formula_sum   'Li4 Mn2 F8'
_cell_volume   164.99893572
_cell_formula_units_Z   2
loop_
 _symmetry_equiv_pos_site_id
 _symmetry_equiv_pos_as_xyz
  1  'x, y, z'
loop_
 _atom_site_type_symbol
 _atom_site_label
 _atom_site_symmetry_multiplicity
 _atom_site_fract_x
 _atom_site_fract_y
 _atom_site_fract_z
 _atom_site_occupancy
  Li  Li0  1  0.262149  0.963148  0.074423  1
  Li  Li1  1  0.230695  0.964069  0.422720  1
  Li  Li2  1  0.730479  0.034657  0.922520  1
  Li  Li3  1  0.760393  0.036022  0.573611  1
  Mn  Mn4  1  0.246140  0.525398  0.748952  1
  Mn  Mn5  1  0.747081  0.474200  0.248804  1
  F  F6  1  0.108403  0.462925  0.135059  1
  F  F7  1  0.116750  0.024652  0.621858  1
  F  F8  1  0.398102  0.463766  0.374754  1
  F  F9  1  0.618113  0.973545  0.121889  1
  F  F10  1  0.376190  0.026201  0.876764  1
  F  F11  1  0.606987  0.536394  0.634736  1
  F  F12  1  0.876850  0.974680  0.376449  1
  F  F13  1  0.897401  0.535051  0.874856  1
