# generated using pymatgen
data_Fe5O7F3
_symmetry_space_group_name_H-M   'P 1'
_cell_length_a   4.65662775
_cell_length_b   4.65677704
_cell_length_c   15.22140819
_cell_angle_alpha   90.00000000
_cell_angle_beta   90.04562176
_cell_angle_gamma   90.00000000
_symmetry_Int_Tables_number   1
_chemical_formula_structural   Fe5O7F3
_chemical_formula_sum   'Fe10 O14 F6'
_cell_volume   330.07426299
_cell_formula_units_Z   2
loop_
 _symmetry_equiv_pos_site_id
 _symmetry_equiv_pos_as_xyz
  1  'x, y, z'
loop_
 _atom_site_type_symbol
 _atom_site_label
 _atom_site_symmetry_multiplicity
 _atom_site_fract_x
 _atom_site_fract_y
 _atom_site_fract_z
 _atom_site_occupancy
  Fe  Fe0  1  0.004391  0.000871  0.000657  1
  Fe  Fe1  1  0.972634  0.985897  0.205688  1
  Fe  Fe2  1  0.980299  0.980406  0.399645  1
  Fe  Fe3  1  0.034756  0.019579  0.593665  1
  Fe  Fe4  1  0.012289  0.982366  0.799234  1
  Fe  Fe5  1  0.534756  0.480421  0.093665  1
  Fe  Fe6  1  0.504391  0.499129  0.500657  1
  Fe  Fe7  1  0.512289  0.517634  0.299234  1
  Fe  Fe8  1  0.472634  0.514103  0.705688  1
  Fe  Fe9  1  0.480299  0.519594  0.899645  1
  O  O10  1  0.187793  0.798537  0.302166  1
  O  O11  1  0.199808  0.801530  0.496964  1
  O  O12  1  0.191423  0.823577  0.696670  1
  O  O13  1  0.183930  0.815530  0.903791  1
  O  O14  1  0.308005  0.302486  0.998772  1
  O  O15  1  0.320865  0.323869  0.599109  1
  O  O16  1  0.295478  0.309811  0.803773  1
  O  O17  1  0.699808  0.698470  0.996964  1
  O  O18  1  0.691423  0.676423  0.196670  1
  O  O19  1  0.683930  0.684470  0.403791  1
  O  O20  1  0.687793  0.701463  0.802166  1
  O  O21  1  0.820865  0.176131  0.099109  1
  O  O22  1  0.808005  0.197514  0.498772  1
  O  O23  1  0.795478  0.190189  0.303773  1
  F  F24  1  0.205224  0.790392  0.102527  1
  F  F25  1  0.303789  0.290976  0.198226  1
  F  F26  1  0.299317  0.297154  0.399114  1
  F  F27  1  0.705224  0.709608  0.602527  1
  F  F28  1  0.799317  0.202846  0.899114  1
  F  F29  1  0.803789  0.209024  0.698226  1
