# generated using pymatgen
data_Ti3(BiO3)4
_symmetry_space_group_name_H-M   'P 1'
_cell_length_a   16.91952738
_cell_length_b   5.45390132
_cell_length_c   16.89268123
_cell_angle_alpha   90.00000000
_cell_angle_beta   18.86167565
_cell_angle_gamma   90.00000000
_symmetry_Int_Tables_number   1
_chemical_formula_structural   Ti3(BiO3)4
_chemical_formula_sum   'Ti6 Bi8 O24'
_cell_volume   503.94019888
_cell_formula_units_Z   2
loop_
 _symmetry_equiv_pos_site_id
 _symmetry_equiv_pos_as_xyz
  1  'x, y, z'
loop_
 _atom_site_type_symbol
 _atom_site_label
 _atom_site_symmetry_multiplicity
 _atom_site_fract_x
 _atom_site_fract_y
 _atom_site_fract_z
 _atom_site_occupancy
  Ti  Ti0  1  0.045498  0.501334  0.956916  1
  Ti  Ti1  1  0.545498  0.998666  0.456916  1
  Ti  Ti2  1  0.178361  0.502003  0.079462  1
  Ti  Ti3  1  0.678361  0.997997  0.579462  1
  Ti  Ti4  1  0.928872  0.498386  0.816416  1
  Ti  Ti5  1  0.428872  0.001614  0.316416  1
  Bi  Bi6  1  0.067298  0.000433  0.066628  1
  Bi  Bi7  1  0.567298  0.499567  0.566628  1
  Bi  Bi8  1  0.215033  0.025681  0.209253  1
  Bi  Bi9  1  0.715033  0.474319  0.709253  1
  Bi  Bi10  1  0.937043  0.999402  0.931088  1
  Bi  Bi11  1  0.437043  0.500598  0.431088  1
  Bi  Bi12  1  0.784856  0.974762  0.793037  1
  Bi  Bi13  1  0.284856  0.525238  0.293037  1
  O  O14  1  0.316274  0.224342  0.705781  1
  O  O15  1  0.816274  0.275658  0.205781  1
  O  O16  1  0.019821  0.256545  0.483183  1
  O  O17  1  0.519821  0.243455  0.983183  1
  O  O18  1  0.157020  0.579499  0.961448  1
  O  O19  1  0.657020  0.920501  0.461448  1
  O  O20  1  0.238538  0.441892  0.124141  1
  O  O21  1  0.738538  0.058108  0.624141  1
  O  O22  1  0.403698  0.219089  0.818797  1
  O  O23  1  0.903698  0.280911  0.318797  1
  O  O24  1  0.495414  0.698661  0.755000  1
  O  O25  1  0.995414  0.801339  0.255000  1
  O  O26  1  0.353913  0.717756  0.630752  1
  O  O27  1  0.853913  0.782244  0.130752  1
  O  O28  1  0.519397  0.742558  0.979861  1
  O  O29  1  0.019397  0.757442  0.479861  1
  O  O30  1  0.041678  0.429771  0.844552  1
  O  O31  1  0.541678  0.070229  0.344552  1
  O  O32  1  0.891137  0.564698  0.749819  1
  O  O33  1  0.391137  0.935302  0.249819  1
  O  O34  1  0.196327  0.771948  0.584970  1
  O  O35  1  0.696327  0.728052  0.084970  1
  O  O36  1  0.238222  0.289785  0.514696  1
  O  O37  1  0.738222  0.210215  0.014696  1
