# generated using pymatgen
data_Ba3LaCl9
_symmetry_space_group_name_H-M   'P 1'
_cell_length_a   7.70367830
_cell_length_b   29.93891432
_cell_length_c   7.18299136
_cell_angle_alpha   90.00000000
_cell_angle_beta   90.00000000
_cell_angle_gamma   92.10079089
_symmetry_Int_Tables_number   1
_chemical_formula_structural   Ba3LaCl9
_chemical_formula_sum   'Ba12 La4 Cl36'
_cell_volume   1655.56995858
_cell_formula_units_Z   4
loop_
 _symmetry_equiv_pos_site_id
 _symmetry_equiv_pos_as_xyz
  1  'x, y, z'
loop_
 _atom_site_type_symbol
 _atom_site_label
 _atom_site_symmetry_multiplicity
 _atom_site_fract_x
 _atom_site_fract_y
 _atom_site_fract_z
 _atom_site_occupancy
  Ba  Ba0  1  0.315918  0.933064  0.973380  1
  Ba  Ba1  1  0.287035  0.691994  0.004756  1
  Ba  Ba2  1  0.315918  0.433064  0.026620  1
  Ba  Ba3  1  0.287035  0.191994  0.995244  1
  Ba  Ba4  1  0.687163  0.569857  0.989632  1
  Ba  Ba5  1  0.718779  0.808215  0.986179  1
  Ba  Ba6  1  0.687163  0.069857  0.010368  1
  Ba  Ba7  1  0.718779  0.308215  0.013821  1
  Ba  Ba8  1  0.780846  0.692120  0.524347  1
  Ba  Ba9  1  0.817524  0.930632  0.514819  1
  Ba  Ba10  1  0.780846  0.192120  0.475653  1
  Ba  Ba11  1  0.817524  0.430632  0.485181  1
  La  La12  1  0.207142  0.806671  0.520052  1
  La  La13  1  0.181878  0.566971  0.544026  1
  La  La14  1  0.207142  0.306671  0.479948  1
  La  La15  1  0.181878  0.066971  0.455974  1
  Cl  Cl16  1  0.023754  0.867764  0.790879  1
  Cl  Cl17  1  0.017697  0.753115  0.810012  1
  Cl  Cl18  1  0.007711  0.627076  0.804158  1
  Cl  Cl19  1  0.023754  0.367764  0.209121  1
  Cl  Cl20  1  0.017697  0.253115  0.189988  1
  Cl  Cl21  1  0.108813  0.994254  0.700491  1
  Cl  Cl22  1  0.007711  0.127076  0.195842  1
  Cl  Cl23  1  0.153067  0.890605  0.335529  1
  Cl  Cl24  1  0.108813  0.494254  0.299509  1
  Cl  Cl25  1  0.159315  0.709538  0.402735  1
  Cl  Cl26  1  0.153067  0.390605  0.664471  1
  Cl  Cl27  1  0.159315  0.209538  0.597265  1
  Cl  Cl28  1  0.353249  0.795729  0.162744  1
  Cl  Cl29  1  0.350140  0.599514  0.214611  1
  Cl  Cl30  1  0.353249  0.295729  0.837256  1
  Cl  Cl31  1  0.350140  0.099514  0.785389  1
  Cl  Cl32  1  0.410323  0.511933  0.743665  1
  Cl  Cl33  1  0.488181  0.866257  0.679791  1
  Cl  Cl34  1  0.482887  0.752657  0.692490  1
  Cl  Cl35  1  0.469268  0.627354  0.698758  1
  Cl  Cl36  1  0.410323  0.011933  0.256335  1
  Cl  Cl37  1  0.488181  0.366257  0.320209  1
  Cl  Cl38  1  0.482887  0.252657  0.307510  1
  Cl  Cl39  1  0.469268  0.127354  0.301242  1
  Cl  Cl40  1  0.599492  0.989759  0.764314  1
  Cl  Cl41  1  0.599492  0.489759  0.235686  1
  Cl  Cl42  1  0.655868  0.900942  0.146925  1
  Cl  Cl43  1  0.678128  0.698756  0.105253  1
  Cl  Cl44  1  0.655868  0.400942  0.853075  1
  Cl  Cl45  1  0.678128  0.198756  0.894747  1
  Cl  Cl46  1  0.856091  0.797495  0.396570  1
  Cl  Cl47  1  0.880917  0.598716  0.357403  1
  Cl  Cl48  1  0.856091  0.297495  0.603430  1
  Cl  Cl49  1  0.880917  0.098716  0.642597  1
  Cl  Cl50  1  0.939548  0.510828  0.752892  1
  Cl  Cl51  1  0.939548  0.010828  0.247108  1
