# generated using pymatgen
data_TaAsO4
_symmetry_space_group_name_H-M   'P 1'
_cell_length_a   5.71334472
_cell_length_b   5.57809003
_cell_length_c   5.12719862
_cell_angle_alpha   90.00000000
_cell_angle_beta   100.90100675
_cell_angle_gamma   90.00000000
_symmetry_Int_Tables_number   1
_chemical_formula_structural   TaAsO4
_chemical_formula_sum   'Ta2 As2 O8'
_cell_volume   160.45300211
_cell_formula_units_Z   2
loop_
 _symmetry_equiv_pos_site_id
 _symmetry_equiv_pos_as_xyz
  1  'x, y, z'
loop_
 _atom_site_type_symbol
 _atom_site_label
 _atom_site_symmetry_multiplicity
 _atom_site_fract_x
 _atom_site_fract_y
 _atom_site_fract_z
 _atom_site_occupancy
  Ta  Ta0  1  0.512902  0.341050  0.503631  1
  Ta  Ta1  1  0.012902  0.658950  0.503631  1
  As  As2  1  0.924867  0.178569  0.050831  1
  As  As3  1  0.424867  0.821431  0.050831  1
  O  O4  1  0.156208  0.867819  0.788789  1
  O  O5  1  0.236792  0.400747  0.661444  1
  O  O6  1  0.291847  0.616054  0.269537  1
  O  O7  1  0.392334  0.088321  0.253909  1
  O  O8  1  0.656208  0.132181  0.788789  1
  O  O9  1  0.736792  0.599252  0.661444  1
  O  O10  1  0.791847  0.383946  0.269537  1
  O  O11  1  0.892334  0.911679  0.253909  1
