# generated using pymatgen
data_Mn6O5F7
_symmetry_space_group_name_H-M   'P 1'
_cell_length_a   4.74222060
_cell_length_b   5.74097927
_cell_length_c   15.63151875
_cell_angle_alpha   90.00000000
_cell_angle_beta   90.49471363
_cell_angle_gamma   90.00000000
_symmetry_Int_Tables_number   1
_chemical_formula_structural   Mn6O5F7
_chemical_formula_sum   'Mn12 O10 F14'
_cell_volume   425.55208116
_cell_formula_units_Z   2
loop_
 _symmetry_equiv_pos_site_id
 _symmetry_equiv_pos_as_xyz
  1  'x, y, z'
loop_
 _atom_site_type_symbol
 _atom_site_label
 _atom_site_symmetry_multiplicity
 _atom_site_fract_x
 _atom_site_fract_y
 _atom_site_fract_z
 _atom_site_occupancy
  Mn  Mn0  1  0.038654  0.155685  0.419299  1
  Mn  Mn1  1  0.010296  0.814868  0.245597  1
  Mn  Mn2  1  0.007811  0.136187  0.081559  1
  Mn  Mn3  1  0.010296  0.185132  0.745597  1
  Mn  Mn4  1  0.007811  0.863813  0.581559  1
  Mn  Mn5  1  0.038654  0.844315  0.919299  1
  Mn  Mn6  1  0.475360  0.334094  0.585276  1
  Mn  Mn7  1  0.466943  0.345835  0.919845  1
  Mn  Mn8  1  0.511046  0.374913  0.250533  1
  Mn  Mn9  1  0.475360  0.665906  0.085276  1
  Mn  Mn10  1  0.466943  0.654164  0.419845  1
  Mn  Mn11  1  0.511046  0.625087  0.750533  1
  O  O12  1  0.203849  0.117520  0.637593  1
  O  O13  1  0.216764  0.104585  0.974166  1
  O  O14  1  0.203849  0.882480  0.137593  1
  O  O15  1  0.216764  0.895415  0.474166  1
  O  O16  1  0.288328  0.609260  0.309789  1
  O  O17  1  0.279272  0.379075  0.476181  1
  O  O18  1  0.288328  0.390740  0.809789  1
  O  O19  1  0.279272  0.620925  0.976181  1
  O  O20  1  0.700938  0.622032  0.189841  1
  O  O21  1  0.700938  0.377968  0.689841  1
  F  F22  1  0.258891  0.121643  0.299268  1
  F  F23  1  0.258891  0.878357  0.799268  1
  F  F24  1  0.250210  0.387567  0.138931  1
  F  F25  1  0.250210  0.612433  0.638931  1
  F  F26  1  0.719651  0.368208  0.028638  1
  F  F27  1  0.769811  0.386435  0.366694  1
  F  F28  1  0.719651  0.631792  0.528638  1
  F  F29  1  0.769811  0.613565  0.866694  1
  F  F30  1  0.764741  0.135928  0.193612  1
  F  F31  1  0.749568  0.120535  0.524604  1
  F  F32  1  0.787865  0.894869  0.358574  1
  F  F33  1  0.749568  0.879465  0.024604  1
  F  F34  1  0.787865  0.105131  0.858574  1
  F  F35  1  0.764741  0.864072  0.693612  1
