# generated using pymatgen
data_Li2VF6
_symmetry_space_group_name_H-M   'P 1'
_cell_length_a   5.20005499
_cell_length_b   5.23021812
_cell_length_c   7.63901643
_cell_angle_alpha   90.00000000
_cell_angle_beta   89.65504004
_cell_angle_gamma   90.00000000
_symmetry_Int_Tables_number   1
_chemical_formula_structural   Li2VF6
_chemical_formula_sum   'Li4 V2 F12'
_cell_volume   207.75778677
_cell_formula_units_Z   2
loop_
 _symmetry_equiv_pos_site_id
 _symmetry_equiv_pos_as_xyz
  1  'x, y, z'
loop_
 _atom_site_type_symbol
 _atom_site_label
 _atom_site_symmetry_multiplicity
 _atom_site_fract_x
 _atom_site_fract_y
 _atom_site_fract_z
 _atom_site_occupancy
  Li  Li0  1  0.998253  0.011689  0.497408  1
  Li  Li1  1  0.491924  0.956563  0.225363  1
  Li  Li2  1  0.498253  0.488311  0.997408  1
  Li  Li3  1  0.991924  0.543437  0.725363  1
  V  V4  1  0.001170  -0.000015  0.000588  1
  V  V5  1  0.501170  0.500015  0.500588  1
  F  F6  1  0.127625  0.058283  0.232065  1
  F  F7  1  0.141066  0.307695  0.925827  1
  F  F8  1  0.185084  0.324593  0.559055  1
  F  F9  1  0.305808  0.815141  0.960097  1
  F  F10  1  0.326445  0.786188  0.567902  1
  F  F11  1  0.407829  0.578558  0.266988  1
  F  F12  1  0.627625  0.441717  0.732065  1
  F  F13  1  0.641066  0.192305  0.425827  1
  F  F14  1  0.685084  0.175407  0.059055  1
  F  F15  1  0.805808  0.684859  0.460097  1
  F  F16  1  0.826445  0.713812  0.067902  1
  F  F17  1  0.907829  0.921442  0.766988  1
