# generated using pymatgen
data_Li2VF5
_symmetry_space_group_name_H-M   'P 1'
_cell_length_a   7.48201575
_cell_length_b   6.95050681
_cell_length_c   7.81795253
_cell_angle_alpha   90.00000000
_cell_angle_beta   90.59776480
_cell_angle_gamma   90.00000000
_symmetry_Int_Tables_number   1
_chemical_formula_structural   Li2VF5
_chemical_formula_sum   'Li8 V4 F20'
_cell_volume   406.54112435
_cell_formula_units_Z   4
loop_
 _symmetry_equiv_pos_site_id
 _symmetry_equiv_pos_as_xyz
  1  'x, y, z'
loop_
 _atom_site_type_symbol
 _atom_site_label
 _atom_site_symmetry_multiplicity
 _atom_site_fract_x
 _atom_site_fract_y
 _atom_site_fract_z
 _atom_site_occupancy
  Li  Li0  1  0.249033  0.731778  0.980763  1
  Li  Li1  1  0.249033  0.768222  0.480763  1
  Li  Li2  1  0.470592  0.987891  0.814379  1
  Li  Li3  1  0.470592  0.512109  0.314379  1
  Li  Li4  1  0.737896  0.247462  0.540902  1
  Li  Li5  1  0.737896  0.252538  0.040902  1
  Li  Li6  1  0.998111  0.440942  0.799185  1
  Li  Li7  1  0.998111  0.059058  0.299185  1
  V  V8  1  0.256997  0.237637  0.596402  1
  V  V9  1  0.256997  0.262363  0.096402  1
  V  V10  1  0.746399  0.731175  0.899113  1
  V  V11  1  0.746399  0.768825  0.399113  1
  F  F12  1  0.008644  0.704364  0.882040  1
  F  F13  1  0.008644  0.795636  0.382040  1
  F  F14  1  0.235925  0.345909  0.843921  1
  F  F15  1  0.235925  0.154091  0.343921  1
  F  F16  1  0.245276  0.966948  0.657562  1
  F  F17  1  0.245276  0.533052  0.157562  1
  F  F18  1  0.299612  0.495096  0.517164  1
  F  F19  1  0.299612  0.004904  0.017164  1
  F  F20  1  0.486933  0.717326  0.876603  1
  F  F21  1  0.486933  0.782674  0.376603  1
  F  F22  1  0.510065  0.193883  0.639343  1
  F  F23  1  0.510065  0.306117  0.139343  1
  F  F24  1  0.708038  0.006409  0.937980  1
  F  F25  1  0.708038  0.493591  0.437980  1
  F  F26  1  0.760813  0.447332  0.861792  1
  F  F27  1  0.760813  0.052668  0.361792  1
  F  F28  1  0.747780  0.813241  0.649872  1
  F  F29  1  0.747780  0.686759  0.149872  1
  F  F30  1  0.998540  0.271985  0.596861  1
  F  F31  1  0.998540  0.228015  0.096861  1
