# generated using pymatgen
data_Sr3LaI9
_symmetry_space_group_name_H-M   'P 1'
_cell_length_a   8.40495976
_cell_length_b   33.10699701
_cell_length_c   7.80233031
_cell_angle_alpha   90.00000000
_cell_angle_beta   90.00000000
_cell_angle_gamma   91.79229030
_symmetry_Int_Tables_number   1
_chemical_formula_structural   Sr3LaI9
_chemical_formula_sum   'Sr12 La4 I36'
_cell_volume   2170.03751416
_cell_formula_units_Z   4
loop_
 _symmetry_equiv_pos_site_id
 _symmetry_equiv_pos_as_xyz
  1  'x, y, z'
loop_
 _atom_site_type_symbol
 _atom_site_label
 _atom_site_symmetry_multiplicity
 _atom_site_fract_x
 _atom_site_fract_y
 _atom_site_fract_z
 _atom_site_occupancy
  Sr  Sr0  1  0.331608  0.932765  0.967041  1
  Sr  Sr1  1  0.299840  0.692175  0.001548  1
  Sr  Sr2  1  0.331608  0.432765  0.032959  1
  Sr  Sr3  1  0.299840  0.192175  0.998452  1
  Sr  Sr4  1  0.679268  0.568610  0.984611  1
  Sr  Sr5  1  0.713735  0.809601  0.981852  1
  Sr  Sr6  1  0.679268  0.068610  0.015389  1
  Sr  Sr7  1  0.713735  0.309601  0.018148  1
  Sr  Sr8  1  0.789540  0.692079  0.522552  1
  Sr  Sr9  1  0.828078  0.931777  0.516774  1
  Sr  Sr10  1  0.789540  0.192079  0.477448  1
  Sr  Sr11  1  0.828078  0.431777  0.483226  1
  La  La12  1  0.201136  0.806848  0.521300  1
  La  La13  1  0.177004  0.567681  0.546592  1
  La  La14  1  0.201136  0.306848  0.478700  1
  La  La15  1  0.177004  0.067681  0.453408  1
  I  I16  1  0.014588  0.869613  0.801420  1
  I  I17  1  0.008882  0.751210  0.822756  1
  I  I18  1  0.001130  0.628935  0.820243  1
  I  I19  1  0.014588  0.369613  0.198580  1
  I  I20  1  0.008882  0.251210  0.177244  1
  I  I21  1  0.110693  0.991498  0.709897  1
  I  I22  1  0.001130  0.128935  0.179757  1
  I  I23  1  0.151789  0.895004  0.324859  1
  I  I24  1  0.110693  0.491498  0.290103  1
  I  I25  1  0.156964  0.705891  0.391168  1
  I  I26  1  0.151789  0.395004  0.675141  1
  I  I27  1  0.156964  0.205891  0.608832  1
  I  I28  1  0.357003  0.795936  0.152728  1
  I  I29  1  0.351928  0.599357  0.199926  1
  I  I30  1  0.357003  0.295936  0.847272  1
  I  I31  1  0.351928  0.099357  0.800074  1
  I  I32  1  0.412843  0.509892  0.753568  1
  I  I33  1  0.497544  0.868112  0.682039  1
  I  I34  1  0.494365  0.750889  0.694174  1
  I  I35  1  0.483297  0.628793  0.701051  1
  I  I36  1  0.412843  0.009892  0.246432  1
  I  I37  1  0.497544  0.368112  0.317961  1
  I  I38  1  0.494365  0.250889  0.305826  1
  I  I39  1  0.483297  0.128793  0.298949  1
  I  I40  1  0.608562  0.989397  0.762253  1
  I  I41  1  0.608562  0.489397  0.237747  1
  I  I42  1  0.656405  0.900394  0.159626  1
  I  I43  1  0.670826  0.699261  0.123166  1
  I  I44  1  0.656405  0.400394  0.840374  1
  I  I45  1  0.670826  0.199261  0.876834  1
  I  I46  1  0.845615  0.797255  0.384003  1
  I  I47  1  0.865540  0.599082  0.349000  1
  I  I48  1  0.845615  0.297255  0.615997  1
  I  I49  1  0.865540  0.099082  0.651000  1
  I  I50  1  0.922554  0.509760  0.757542  1
  I  I51  1  0.922554  0.009760  0.242458  1
