# generated using pymatgen
data_Fe4O5F3
_symmetry_space_group_name_H-M   'P 1'
_cell_length_a   4.70935965
_cell_length_b   9.40826289
_cell_length_c   6.13250244
_cell_angle_alpha   90.00000000
_cell_angle_beta   90.00000000
_cell_angle_gamma   92.49306400
_symmetry_Int_Tables_number   1
_chemical_formula_structural   Fe4O5F3
_chemical_formula_sum   'Fe8 O10 F6'
_cell_volume   271.45495649
_cell_formula_units_Z   2
loop_
 _symmetry_equiv_pos_site_id
 _symmetry_equiv_pos_as_xyz
  1  'x, y, z'
loop_
 _atom_site_type_symbol
 _atom_site_label
 _atom_site_symmetry_multiplicity
 _atom_site_fract_x
 _atom_site_fract_y
 _atom_site_fract_z
 _atom_site_occupancy
  Fe  Fe0  1  0.000422  0.999060  0.999883  1
  Fe  Fe1  1  0.013982  0.008384  0.500038  1
  Fe  Fe2  1  0.013982  0.508384  0.999962  1
  Fe  Fe3  1  0.000422  0.499060  0.500117  1
  Fe  Fe4  1  0.525121  0.228199  0.254708  1
  Fe  Fe5  1  0.456004  0.262437  0.741721  1
  Fe  Fe6  1  0.525121  0.728199  0.245292  1
  Fe  Fe7  1  0.456004  0.762437  0.758279  1
  O  O8  1  0.175993  0.410560  0.747648  1
  O  O9  1  0.175993  0.910560  0.752352  1
  O  O10  1  0.304693  0.152387  0.998097  1
  O  O11  1  0.307749  0.153096  0.498202  1
  O  O12  1  0.307749  0.653096  0.001798  1
  O  O13  1  0.304693  0.652387  0.501903  1
  O  O14  1  0.697539  0.347688  0.498317  1
  O  O15  1  0.697539  0.847688  0.001683  1
  O  O16  1  0.821749  0.088456  0.244768  1
  O  O17  1  0.821749  0.588456  0.255232  1
  F  F18  1  0.204515  0.397535  0.243444  1
  F  F19  1  0.204515  0.897535  0.256556  1
  F  F20  1  0.696541  0.349842  0.998525  1
  F  F21  1  0.696541  0.849842  0.501475  1
  F  F22  1  0.795690  0.602359  0.751509  1
  F  F23  1  0.795690  0.102359  0.748491  1
