# generated using pymatgen
data_Ba3YI9
_symmetry_space_group_name_H-M   'P 1'
_cell_length_a   8.59639536
_cell_length_b   33.67320606
_cell_length_c   7.98608823
_cell_angle_alpha   90.00000000
_cell_angle_beta   90.00000000
_cell_angle_gamma   91.91994046
_symmetry_Int_Tables_number   1
_chemical_formula_structural   Ba3YI9
_chemical_formula_sum   'Ba12 Y4 I36'
_cell_volume   2310.42076342
_cell_formula_units_Z   4
loop_
 _symmetry_equiv_pos_site_id
 _symmetry_equiv_pos_as_xyz
  1  'x, y, z'
loop_
 _atom_site_type_symbol
 _atom_site_label
 _atom_site_symmetry_multiplicity
 _atom_site_fract_x
 _atom_site_fract_y
 _atom_site_fract_z
 _atom_site_occupancy
  Ba  Ba0  1  0.319004  0.933198  0.970393  1
  Ba  Ba1  1  0.292537  0.691744  0.002251  1
  Ba  Ba2  1  0.319004  0.433198  0.029607  1
  Ba  Ba3  1  0.292537  0.191744  0.997749  1
  Ba  Ba4  1  0.682838  0.570633  0.985568  1
  Ba  Ba5  1  0.714708  0.808322  0.981779  1
  Ba  Ba6  1  0.682838  0.070633  0.014432  1
  Ba  Ba7  1  0.714708  0.308322  0.018221  1
  Ba  Ba8  1  0.783869  0.691971  0.528982  1
  Ba  Ba9  1  0.822125  0.930392  0.518516  1
  Ba  Ba10  1  0.783869  0.191971  0.471018  1
  Ba  Ba11  1  0.822125  0.430392  0.481484  1
  Y  Y12  1  0.199901  0.806313  0.516873  1
  Y  Y13  1  0.174357  0.566227  0.545039  1
  Y  Y14  1  0.199901  0.306313  0.483127  1
  Y  Y15  1  0.174357  0.066227  0.454961  1
  I  I16  1  0.024854  0.867468  0.794729  1
  I  I17  1  0.020681  0.753723  0.812054  1
  I  I18  1  0.012696  0.626138  0.807093  1
  I  I19  1  0.024854  0.367468  0.205271  1
  I  I20  1  0.020681  0.253723  0.187946  1
  I  I21  1  0.112343  0.995264  0.698077  1
  I  I22  1  0.012696  0.126138  0.192907  1
  I  I23  1  0.155422  0.890894  0.336537  1
  I  I24  1  0.112343  0.495264  0.301923  1
  I  I25  1  0.159878  0.708558  0.400940  1
  I  I26  1  0.155422  0.390894  0.663463  1
  I  I27  1  0.159878  0.208558  0.599060  1
  I  I28  1  0.351311  0.796506  0.173106  1
  I  I29  1  0.344988  0.598315  0.223025  1
  I  I30  1  0.351311  0.296506  0.826894  1
  I  I31  1  0.344988  0.098315  0.776975  1
  I  I32  1  0.404945  0.512903  0.735388  1
  I  I33  1  0.484766  0.865717  0.673657  1
  I  I34  1  0.479487  0.753321  0.687847  1
  I  I35  1  0.468123  0.627483  0.694809  1
  I  I36  1  0.404945  0.012903  0.264612  1
  I  I37  1  0.484766  0.365717  0.326343  1
  I  I38  1  0.479487  0.253321  0.312153  1
  I  I39  1  0.468123  0.127483  0.305191  1
  I  I40  1  0.602413  0.990266  0.763320  1
  I  I41  1  0.602413  0.490266  0.236680  1
  I  I42  1  0.657736  0.901135  0.149128  1
  I  I43  1  0.680905  0.698398  0.107370  1
  I  I44  1  0.657736  0.401135  0.850872  1
  I  I45  1  0.680905  0.198398  0.892630  1
  I  I46  1  0.860294  0.797972  0.395201  1
  I  I47  1  0.882362  0.597843  0.359120  1
  I  I48  1  0.860294  0.297972  0.604799  1
  I  I49  1  0.882362  0.097843  0.640880  1
  I  I50  1  0.938192  0.511109  0.751980  1
  I  I51  1  0.938192  0.011109  0.248020  1
