# generated using pymatgen
data_Li2ErTl
_symmetry_space_group_name_H-M   'P 1'
_cell_length_a   4.82572179
_cell_length_b   4.82571619
_cell_length_c   4.82571655
_cell_angle_alpha   59.99966283
_cell_angle_beta   59.99979274
_cell_angle_gamma   59.99983016
_symmetry_Int_Tables_number   1
_chemical_formula_structural   Li2ErTl
_chemical_formula_sum   'Li2 Er1 Tl1'
_cell_volume   79.46365262
_cell_formula_units_Z   1
loop_
 _symmetry_equiv_pos_site_id
 _symmetry_equiv_pos_as_xyz
  1  'x, y, z'
loop_
 _atom_site_type_symbol
 _atom_site_label
 _atom_site_symmetry_multiplicity
 _atom_site_fract_x
 _atom_site_fract_y
 _atom_site_fract_z
 _atom_site_occupancy
  Li  Li0  1  0.499998  0.499999  0.500000  1
  Li  Li1  1  0.999999  0.000000  0.000001  1
  Er  Er2  1  0.250002  0.249998  0.249999  1
  Tl  Tl3  1  0.750000  0.750002  0.750000  1
