# generated using pymatgen
data_GdMgRh2
_symmetry_space_group_name_H-M   'P 1'
_cell_length_a   4.67472362
_cell_length_b   4.67456439
_cell_length_c   4.67478554
_cell_angle_alpha   60.00100759
_cell_angle_beta   59.99488368
_cell_angle_gamma   60.00327783
_symmetry_Int_Tables_number   1
_chemical_formula_structural   GdMgRh2
_chemical_formula_sum   'Gd1 Mg1 Rh2'
_cell_volume   72.23389725
_cell_formula_units_Z   1
loop_
 _symmetry_equiv_pos_site_id
 _symmetry_equiv_pos_as_xyz
  1  'x, y, z'
loop_
 _atom_site_type_symbol
 _atom_site_label
 _atom_site_symmetry_multiplicity
 _atom_site_fract_x
 _atom_site_fract_y
 _atom_site_fract_z
 _atom_site_occupancy
  Gd  Gd0  1  0.250000  0.250000  0.250000  1
  Mg  Mg1  1  0.750000  0.749999  0.750001  1
  Rh  Rh2  1  0.000007  0.999966  0.000026  1
  Rh  Rh3  1  0.499994  0.500035  0.499974  1
