# generated using pymatgen
data_PmInHg2
_symmetry_space_group_name_H-M   'P 1'
_cell_length_a   5.24114069
_cell_length_b   5.24076118
_cell_length_c   5.24054532
_cell_angle_alpha   60.00346634
_cell_angle_beta   60.00238951
_cell_angle_gamma   59.99765699
_symmetry_Int_Tables_number   1
_chemical_formula_structural   PmInHg2
_chemical_formula_sum   'Pm1 In1 Hg2'
_cell_volume   101.78720703
_cell_formula_units_Z   1
loop_
 _symmetry_equiv_pos_site_id
 _symmetry_equiv_pos_as_xyz
  1  'x, y, z'
loop_
 _atom_site_type_symbol
 _atom_site_label
 _atom_site_symmetry_multiplicity
 _atom_site_fract_x
 _atom_site_fract_y
 _atom_site_fract_z
 _atom_site_occupancy
  Pm  Pm0  1  0.749986  0.750004  0.750001  1
  In  In1  1  0.250005  0.249995  0.249997  1
  Hg  Hg2  1  0.999998  0.000003  0.000003  1
  Hg  Hg3  1  0.500012  0.499998  0.500000  1
