# generated using pymatgen
data_La2IrPd
_symmetry_space_group_name_H-M   'P 1'
_cell_length_a   5.13896678
_cell_length_b   5.13887858
_cell_length_c   5.13892107
_cell_angle_alpha   60.00001497
_cell_angle_beta   59.99996977
_cell_angle_gamma   60.00055289
_symmetry_Int_Tables_number   1
_chemical_formula_structural   La2IrPd
_chemical_formula_sum   'La2 Ir1 Pd1'
_cell_volume   95.96279308
_cell_formula_units_Z   1
loop_
 _symmetry_equiv_pos_site_id
 _symmetry_equiv_pos_as_xyz
  1  'x, y, z'
loop_
 _atom_site_type_symbol
 _atom_site_label
 _atom_site_symmetry_multiplicity
 _atom_site_fract_x
 _atom_site_fract_y
 _atom_site_fract_z
 _atom_site_occupancy
  La  La0  1  0.000000  0.000002  0.000000  1
  La  La1  1  0.499999  0.499998  0.500000  1
  Ir  Ir2  1  0.250002  0.250001  0.249999  1
  Pd  Pd3  1  0.750000  0.750000  0.750002  1
