# generated using pymatgen
data_KMo6S7
_symmetry_space_group_name_H-M   'P 1'
_cell_length_a   10.57844476
_cell_length_b   20.48607891
_cell_length_c   12.58997971
_cell_angle_alpha   91.06375440
_cell_angle_beta   87.93962135
_cell_angle_gamma   121.08922914
_symmetry_Int_Tables_number   1
_chemical_formula_structural   KMo6S7
_chemical_formula_sum   'K8 Mo48 S56'
_cell_volume   2334.98082531
_cell_formula_units_Z   8
loop_
 _symmetry_equiv_pos_site_id
 _symmetry_equiv_pos_as_xyz
  1  'x, y, z'
loop_
 _atom_site_type_symbol
 _atom_site_label
 _atom_site_symmetry_multiplicity
 _atom_site_fract_x
 _atom_site_fract_y
 _atom_site_fract_z
 _atom_site_occupancy
  K  K0  1  0.278567  0.867306  0.263965  1
  K  K1  1  0.009053  0.518733  0.739077  1
  K  K2  1  0.427706  0.356944  0.250686  1
  K  K3  1  0.988682  0.010331  0.304101  1
  K  K4  1  0.713818  0.643056  0.750686  1
  K  K5  1  0.968020  0.989669  0.804101  1
  K  K6  1  0.971586  0.481267  0.239077  1
  K  K7  1  0.543956  0.132694  0.763965  1
  Mo  Mo8  1  0.172398  0.830598  0.673891  1
  Mo  Mo9  1  0.100601  0.835661  0.024366  1
  Mo  Mo10  1  0.087537  0.724087  0.502132  1
  Mo  Mo11  1  0.344962  0.907875  0.841639  1
  Mo  Mo12  1  0.161736  0.754344  0.847129  1
  Mo  Mo13  1  0.422315  0.968830  0.492868  1
  Mo  Mo14  1  0.574836  0.944730  0.001092  1
  Mo  Mo15  1  0.321931  0.752704  0.646459  1
  Mo  Mo16  1  0.493926  0.916173  0.663470  1
  Mo  Mo17  1  0.304057  0.705495  0.037920  1
  Mo  Mo18  1  0.389917  0.740039  0.414527  1
  Mo  Mo19  1  0.501631  0.828177  0.816083  1
  Mo  Mo20  1  0.508424  0.678905  0.168921  1
  Mo  Mo21  1  0.150613  0.321095  0.668921  1
  Mo  Mo22  1  0.082987  0.257969  0.080219  1
  Mo  Mo23  1  0.567050  0.742031  0.580219  1
  Mo  Mo24  1  0.508698  0.723138  0.946925  1
  Mo  Mo25  1  0.062422  0.276862  0.446925  1
  Mo  Mo26  1  0.351373  0.415068  0.834357  1
  Mo  Mo27  1  0.521236  0.584932  0.334357  1
  Mo  Mo28  1  0.671172  0.742319  0.358923  1
  Mo  Mo29  1  0.186535  0.257681  0.858923  1
  Mo  Mo30  1  0.420095  0.555790  0.998124  1
  Mo  Mo31  1  0.308515  0.444210  0.498124  1
  Mo  Mo32  1  0.526721  0.465173  0.001237  1
  Mo  Mo33  1  0.596375  0.534827  0.501237  1
  Mo  Mo34  1  0.831787  0.757484  0.163148  1
  Mo  Mo35  1  0.316819  0.242516  0.663148  1
  Mo  Mo36  1  0.473597  0.412804  0.653138  1
  Mo  Mo37  1  0.647989  0.587196  0.153138  1
  Mo  Mo38  1  0.905649  0.766216  0.504346  1
  Mo  Mo39  1  0.373217  0.233784  0.004346  1
  Mo  Mo40  1  0.562926  0.326930  0.500291  1
  Mo  Mo41  1  0.909065  0.673070  0.000291  1
  Mo  Mo42  1  0.864397  0.678808  0.314868  1
  Mo  Mo43  1  0.506781  0.321192  0.814868  1
  Mo  Mo44  1  0.511202  0.169402  0.173891  1
  Mo  Mo45  1  0.429280  0.164339  0.524366  1
  Mo  Mo46  1  0.639362  0.275913  0.002132  1
  Mo  Mo47  1  0.529213  0.092125  0.341639  1
  Mo  Mo48  1  0.653048  0.245656  0.347129  1
  Mo  Mo49  1  0.484654  0.031170  0.992868  1
  Mo  Mo50  1  0.685376  0.055270  0.501092  1
  Mo  Mo51  1  0.816523  0.247296  0.146459  1
  Mo  Mo52  1  0.661581  0.083827  0.163470  1
  Mo  Mo53  1  0.893067  0.294505  0.537920  1
  Mo  Mo54  1  0.909838  0.259961  0.914527  1
  Mo  Mo55  1  0.845276  0.171823  0.316083  1
  S  S56  1  0.962018  0.773227  0.878860  1
  S  S57  1  0.985034  0.856866  0.631900  1
  S  S58  1  0.229471  0.964471  0.941582  1
  S  S59  1  0.058382  0.681930  0.681257  1
  S  S60  1  0.326474  0.966668  0.677970  1
  S  S61  1  0.087727  0.635178  0.933985  1
  S  S62  1  0.341291  0.832639  0.497229  1
  S  S63  1  0.326341  0.831896  0.005311  1
  S  S64  1  0.315694  0.647500  0.543724  1
  S  S65  1  0.607958  0.001382  0.833105  1
  S  S66  1  0.416160  0.692953  0.767344  1
  S  S67  1  0.749078  0.984252  0.598012  1
  S  S68  1  0.884893  0.266575  0.727356  1
  S  S69  1  0.351744  0.733425  0.227356  1
  S  S70  1  0.264965  0.584764  0.109256  1
  S  S71  1  0.095438  0.415236  0.609256  1
  S  S72  1  0.674006  0.858035  0.957773  1
  S  S73  1  0.699514  0.837197  0.710238  1
  S  S74  1  0.238746  0.488416  0.875880  1
  S  S75  1  0.261914  0.511584  0.375880  1
  S  S76  1  0.676900  0.808200  0.200619  1
  S  S77  1  0.060499  0.191800  0.700619  1
  S  S78  1  0.429677  0.515228  0.649208  1
  S  S79  1  0.399220  0.484772  0.149208  1
  S  S80  1  0.966216  0.164924  0.948982  1
  S  S81  1  0.636367  0.835076  0.448982  1
  S  S82  1  0.325265  0.330205  0.509629  1
  S  S83  1  0.664855  0.669795  0.009629  1
  S  S84  1  0.650570  0.662430  0.508005  1
  S  S85  1  0.325710  0.337570  0.008005  1
  S  S86  1  0.213512  0.109115  0.618515  1
  S  S87  1  0.995281  0.890885  0.118515  1
  S  S88  1  0.616267  0.457123  0.813796  1
  S  S89  1  0.702020  0.542877  0.313796  1
  S  S90  1  0.939003  0.823436  0.340806  1
  S  S91  1  0.292131  0.176564  0.840806  1
  S  S92  1  0.701949  0.462528  0.544365  1
  S  S93  1  0.776893  0.537472  0.044365  1
  S  S94  1  0.415564  0.226773  0.378860  1
  S  S95  1  0.271303  0.143134  0.131900  1
  S  S96  1  0.041728  0.639904  0.371288  1
  S  S97  1  0.761920  0.360096  0.871288  1
  S  S98  1  0.575258  0.272104  0.655100  1
  S  S99  1  0.031050  0.727896  0.155100  1
  S  S100  1  0.300529  0.035529  0.441582  1
  S  S101  1  0.694522  0.318070  0.181257  1
  S  S102  1  0.393139  0.033332  0.177970  1
  S  S103  1  0.817371  0.364822  0.433985  1
  S  S104  1  0.676013  0.167361  0.997229  1
  S  S105  1  0.662550  0.168104  0.505311  1
  S  S106  1  0.020694  0.352500  0.043724  1
  S  S107  1  0.605193  0.998618  0.333105  1
  S  S108  1  0.030253  0.307047  0.267344  1
  S  S109  1  0.780574  0.015748  0.098012  1
  S  S110  1  0.957937  0.141965  0.457773  1
  S  S111  1  0.025120  0.162803  0.210238  1
