# generated using pymatgen
data_PuHgAu2
_symmetry_space_group_name_H-M   'P 1'
_cell_length_a   4.99243544
_cell_length_b   4.99906789
_cell_length_c   4.99593109
_cell_angle_alpha   59.93907305
_cell_angle_beta   59.91366099
_cell_angle_gamma   60.00207156
_symmetry_Int_Tables_number   1
_chemical_formula_structural   PuHgAu2
_chemical_formula_sum   'Pu1 Hg1 Au2'
_cell_volume   88.06947820
_cell_formula_units_Z   1
loop_
 _symmetry_equiv_pos_site_id
 _symmetry_equiv_pos_as_xyz
  1  'x, y, z'
loop_
 _atom_site_type_symbol
 _atom_site_label
 _atom_site_symmetry_multiplicity
 _atom_site_fract_x
 _atom_site_fract_y
 _atom_site_fract_z
 _atom_site_occupancy
  Pu  Pu0  1  0.750000  0.750001  0.750000  1
  Hg  Hg1  1  0.250000  0.250000  0.250000  1
  Au  Au2  1  0.499947  0.500006  0.499930  1
  Au  Au3  1  0.000053  -0.000007  0.000071  1
