# generated using pymatgen
data_Mn4O7F
_symmetry_space_group_name_H-M   'P 1'
_cell_length_a   8.92342699
_cell_length_b   5.48504766
_cell_length_c   4.96120055
_cell_angle_alpha   90.00000000
_cell_angle_beta   90.16939213
_cell_angle_gamma   90.00000000
_symmetry_Int_Tables_number   1
_chemical_formula_structural   Mn4O7F
_chemical_formula_sum   'Mn8 O14 F2'
_cell_volume   242.82699507
_cell_formula_units_Z   2
loop_
 _symmetry_equiv_pos_site_id
 _symmetry_equiv_pos_as_xyz
  1  'x, y, z'
loop_
 _atom_site_type_symbol
 _atom_site_label
 _atom_site_symmetry_multiplicity
 _atom_site_fract_x
 _atom_site_fract_y
 _atom_site_fract_z
 _atom_site_occupancy
  Mn  Mn0  1  0.005203  0.165793  0.254287  1
  Mn  Mn1  1  0.004618  0.856184  0.732408  1
  Mn  Mn2  1  0.241886  0.367907  0.760012  1
  Mn  Mn3  1  0.254541  0.650935  0.252944  1
  Mn  Mn4  1  0.505203  0.834207  0.754287  1
  Mn  Mn5  1  0.504618  0.143816  0.232408  1
  Mn  Mn6  1  0.754541  0.349065  0.752944  1
  Mn  Mn7  1  0.741886  0.632093  0.260012  1
  O  O8  1  0.114219  0.119564  0.921967  1
  O  O9  1  0.118616  0.892487  0.413481  1
  O  O10  1  0.135349  0.398754  0.426002  1
  O  O11  1  0.131994  0.618825  0.924735  1
  O  O12  1  0.365781  0.386960  0.078950  1
  O  O13  1  0.364641  0.612194  0.583915  1
  O  O14  1  0.385592  0.887767  0.073238  1
  O  O15  1  0.618616  0.107513  0.913481  1
  O  O16  1  0.614219  0.880436  0.421967  1
  O  O17  1  0.631994  0.381175  0.424735  1
  O  O18  1  0.635349  0.601246  0.926002  1
  O  O19  1  0.864641  0.387806  0.083915  1
  O  O20  1  0.865781  0.613040  0.578950  1
  O  O21  1  0.885592  0.112233  0.573238  1
  F  F22  1  0.377559  0.121309  0.578060  1
  F  F23  1  0.877559  0.878691  0.078060  1
