# generated using pymatgen
data_NaEuTl2
_symmetry_space_group_name_H-M   'P 1'
_cell_length_a   5.54286043
_cell_length_b   5.54311030
_cell_length_c   5.54308261
_cell_angle_alpha   59.99067739
_cell_angle_beta   59.99781788
_cell_angle_gamma   60.00381558
_symmetry_Int_Tables_number   1
_chemical_formula_structural   NaEuTl2
_chemical_formula_sum   'Na1 Eu1 Tl2'
_cell_volume   120.41998426
_cell_formula_units_Z   1
loop_
 _symmetry_equiv_pos_site_id
 _symmetry_equiv_pos_as_xyz
  1  'x, y, z'
loop_
 _atom_site_type_symbol
 _atom_site_label
 _atom_site_symmetry_multiplicity
 _atom_site_fract_x
 _atom_site_fract_y
 _atom_site_fract_z
 _atom_site_occupancy
  Eu  Eu0  1  0.249999  0.249997  0.250007  1
  Na  Na1  1  0.750004  0.750002  0.749997  1
  Tl  Tl2  1  0.999962  0.000030  0.000024  1
  Tl  Tl3  1  0.500034  0.499971  0.499972  1
