# generated using pymatgen
data_ErSnRh2
_symmetry_space_group_name_H-M   'P 1'
_cell_length_a   4.68856802
_cell_length_b   4.68855782
_cell_length_c   4.68855026
_cell_angle_alpha   60.00046632
_cell_angle_beta   60.00001966
_cell_angle_gamma   60.00036514
_symmetry_Int_Tables_number   1
_chemical_formula_structural   ErSnRh2
_chemical_formula_sum   'Er1 Sn1 Rh2'
_cell_volume   72.87958110
_cell_formula_units_Z   1
loop_
 _symmetry_equiv_pos_site_id
 _symmetry_equiv_pos_as_xyz
  1  'x, y, z'
loop_
 _atom_site_type_symbol
 _atom_site_label
 _atom_site_symmetry_multiplicity
 _atom_site_fract_x
 _atom_site_fract_y
 _atom_site_fract_z
 _atom_site_occupancy
  Er  Er0  1  0.250000  0.249997  0.250001  1
  Sn  Sn1  1  0.750000  0.750001  0.750000  1
  Rh  Rh2  1  1.000000  0.000003  0.000001  1
  Rh  Rh3  1  0.500001  0.499999  0.499999  1
