# generated using pymatgen
data_TmPaOs2
_symmetry_space_group_name_H-M   'P 1'
_cell_length_a   4.83417853
_cell_length_b   4.83425769
_cell_length_c   4.83449032
_cell_angle_alpha   60.01144638
_cell_angle_beta   60.01492279
_cell_angle_gamma   60.01670213
_symmetry_Int_Tables_number   1
_chemical_formula_structural   TmPaOs2
_chemical_formula_sum   'Tm1 Pa1 Os2'
_cell_volume   79.91522170
_cell_formula_units_Z   1
loop_
 _symmetry_equiv_pos_site_id
 _symmetry_equiv_pos_as_xyz
  1  'x, y, z'
loop_
 _atom_site_type_symbol
 _atom_site_label
 _atom_site_symmetry_multiplicity
 _atom_site_fract_x
 _atom_site_fract_y
 _atom_site_fract_z
 _atom_site_occupancy
  Tm  Tm0  1  0.750004  0.749994  0.750004  1
  Pa  Pa1  1  0.249997  0.250001  0.249995  1
  Os  Os2  1  0.000037  0.000040  0.000034  1
  Os  Os3  1  0.499963  0.499966  0.499968  1
