# generated using pymatgen
data_TaInRu2
_symmetry_space_group_name_H-M   'P 1'
_cell_length_a   4.51026121
_cell_length_b   4.51246870
_cell_length_c   4.51168460
_cell_angle_alpha   59.97887199
_cell_angle_beta   59.99861392
_cell_angle_gamma   60.00730778
_symmetry_Int_Tables_number   1
_chemical_formula_structural   TaInRu2
_chemical_formula_sum   'Ta1 In1 Ru2'
_cell_volume   64.92166663
_cell_formula_units_Z   1
loop_
 _symmetry_equiv_pos_site_id
 _symmetry_equiv_pos_as_xyz
  1  'x, y, z'
loop_
 _atom_site_type_symbol
 _atom_site_label
 _atom_site_symmetry_multiplicity
 _atom_site_fract_x
 _atom_site_fract_y
 _atom_site_fract_z
 _atom_site_occupancy
  Ta  Ta0  1  0.749981  0.749994  0.749962  1
  In  In1  1  0.250085  0.250050  0.249929  1
  Ru  Ru2  1  -0.000056  0.000037  0.000063  1
  Ru  Ru3  1  0.499988  0.499918  0.500045  1
