# generated using pymatgen
data_Pm2CuRh
_symmetry_space_group_name_H-M   'P 1'
_cell_length_a   5.00956771
_cell_length_b   5.00956483
_cell_length_c   5.00958315
_cell_angle_alpha   59.99902021
_cell_angle_beta   59.99873057
_cell_angle_gamma   59.99957206
_symmetry_Int_Tables_number   1
_chemical_formula_structural   Pm2CuRh
_chemical_formula_sum   'Pm2 Cu1 Rh1'
_cell_volume   88.89514799
_cell_formula_units_Z   1
loop_
 _symmetry_equiv_pos_site_id
 _symmetry_equiv_pos_as_xyz
  1  'x, y, z'
loop_
 _atom_site_type_symbol
 _atom_site_label
 _atom_site_symmetry_multiplicity
 _atom_site_fract_x
 _atom_site_fract_y
 _atom_site_fract_z
 _atom_site_occupancy
  Pm  Pm0  1  -0.000001  -0.000001  0.000000  1
  Pm  Pm1  1  0.500001  0.500000  0.499999  1
  Cu  Cu2  1  0.249999  0.250000  0.249999  1
  Rh  Rh3  1  0.749998  0.750000  0.750000  1
