# generated using pymatgen
data_CeMgAg2
_symmetry_space_group_name_H-M   'P 1'
_cell_length_a   5.06694519
_cell_length_b   5.06679734
_cell_length_c   5.06684906
_cell_angle_alpha   59.98445917
_cell_angle_beta   59.98400383
_cell_angle_gamma   59.98166928
_symmetry_Int_Tables_number   1
_chemical_formula_structural   CeMgAg2
_chemical_formula_sum   'Ce1 Mg1 Ag2'
_cell_volume   91.94730113
_cell_formula_units_Z   1
loop_
 _symmetry_equiv_pos_site_id
 _symmetry_equiv_pos_as_xyz
  1  'x, y, z'
loop_
 _atom_site_type_symbol
 _atom_site_label
 _atom_site_symmetry_multiplicity
 _atom_site_fract_x
 _atom_site_fract_y
 _atom_site_fract_z
 _atom_site_occupancy
  Ce  Ce0  1  0.249998  0.250002  0.250002  1
  Mg  Mg1  1  0.749999  0.749997  0.750002  1
  Ag  Ag2  1  -0.000071  0.999931  -0.000075  1
  Ag  Ag3  1  0.500075  0.500071  0.500072  1
