# generated using pymatgen
data_PaInAu2
_symmetry_space_group_name_H-M   'P 1'
_cell_length_a   4.99610942
_cell_length_b   4.99544396
_cell_length_c   4.99580074
_cell_angle_alpha   59.96241668
_cell_angle_beta   59.96630996
_cell_angle_gamma   59.95811592
_symmetry_Int_Tables_number   1
_chemical_formula_structural   PaInAu2
_chemical_formula_sum   'Pa1 In1 Au2'
_cell_volume   88.08956969
_cell_formula_units_Z   1
loop_
 _symmetry_equiv_pos_site_id
 _symmetry_equiv_pos_as_xyz
  1  'x, y, z'
loop_
 _atom_site_type_symbol
 _atom_site_label
 _atom_site_symmetry_multiplicity
 _atom_site_fract_x
 _atom_site_fract_y
 _atom_site_fract_z
 _atom_site_occupancy
  Pa  Pa0  1  0.749991  0.750021  0.749983  1
  In  In1  1  0.250016  0.249992  0.249981  1
  Au  Au2  1  0.000001  0.000002  0.000028  1
  Au  Au3  1  0.499992  0.499985  0.500009  1
