# generated using pymatgen
data_SmMgRh2
_symmetry_space_group_name_H-M   'P 1'
_cell_length_a   4.71206620
_cell_length_b   4.71204705
_cell_length_c   4.71207132
_cell_angle_alpha   59.99975468
_cell_angle_beta   59.99999350
_cell_angle_gamma   60.00013249
_symmetry_Int_Tables_number   1
_chemical_formula_structural   SmMgRh2
_chemical_formula_sum   'Sm1 Mg1 Rh2'
_cell_volume   73.98053492
_cell_formula_units_Z   1
loop_
 _symmetry_equiv_pos_site_id
 _symmetry_equiv_pos_as_xyz
  1  'x, y, z'
loop_
 _atom_site_type_symbol
 _atom_site_label
 _atom_site_symmetry_multiplicity
 _atom_site_fract_x
 _atom_site_fract_y
 _atom_site_fract_z
 _atom_site_occupancy
  Sm  Sm0  1  0.750001  0.750000  0.750000  1
  Mg  Mg1  1  0.250001  0.250000  0.250000  1
  Rh  Rh2  1  0.999996  0.000001  0.000001  1
  Rh  Rh3  1  0.500002  0.500000  0.500000  1
