# generated using pymatgen
data_PaCu2Sn
_symmetry_space_group_name_H-M   'P 1'
_cell_length_a   4.73019166
_cell_length_b   4.72902458
_cell_length_c   4.73020245
_cell_angle_alpha   60.01093727
_cell_angle_beta   60.02088297
_cell_angle_gamma   60.00848018
_symmetry_Int_Tables_number   1
_chemical_formula_structural   PaCu2Sn
_chemical_formula_sum   'Pa1 Cu2 Sn1'
_cell_volume   74.84232503
_cell_formula_units_Z   1
loop_
 _symmetry_equiv_pos_site_id
 _symmetry_equiv_pos_as_xyz
  1  'x, y, z'
loop_
 _atom_site_type_symbol
 _atom_site_label
 _atom_site_symmetry_multiplicity
 _atom_site_fract_x
 _atom_site_fract_y
 _atom_site_fract_z
 _atom_site_occupancy
  Pa  Pa0  1  0.249998  0.250002  0.250001  1
  Cu  Cu1  1  0.499967  0.500039  0.499959  1
  Cu  Cu2  1  0.000042  0.999954  0.000039  1
  Sn  Sn3  1  0.749993  0.750007  0.750002  1
