# generated using pymatgen
data_MnGaRu2
_symmetry_space_group_name_H-M   'P 1'
_cell_length_a   4.25185502
_cell_length_b   4.25194861
_cell_length_c   4.25313163
_cell_angle_alpha   60.02236710
_cell_angle_beta   60.03263621
_cell_angle_gamma   60.03322302
_symmetry_Int_Tables_number   1
_chemical_formula_structural   MnGaRu2
_chemical_formula_sum   'Mn1 Ga1 Ru2'
_cell_volume   54.40636310
_cell_formula_units_Z   1
loop_
 _symmetry_equiv_pos_site_id
 _symmetry_equiv_pos_as_xyz
  1  'x, y, z'
loop_
 _atom_site_type_symbol
 _atom_site_label
 _atom_site_symmetry_multiplicity
 _atom_site_fract_x
 _atom_site_fract_y
 _atom_site_fract_z
 _atom_site_occupancy
  Mn  Mn0  1  0.749982  0.750070  0.749958  1
  Ga  Ga1  1  0.250036  0.249939  0.250007  1
  Ru  Ru2  1  0.999973  -0.000024  0.999926  1
  Ru  Ru3  1  0.500011  0.500015  0.500110  1
