# generated using pymatgen
data_PaGaCu2
_symmetry_space_group_name_H-M   'P 1'
_cell_length_a   4.59735681
_cell_length_b   4.59776649
_cell_length_c   4.59696207
_cell_angle_alpha   59.99778454
_cell_angle_beta   59.99856948
_cell_angle_gamma   59.99904932
_symmetry_Int_Tables_number   1
_chemical_formula_structural   PaGaCu2
_chemical_formula_sum   'Pa1 Ga1 Cu2'
_cell_volume   68.70620443
_cell_formula_units_Z   1
loop_
 _symmetry_equiv_pos_site_id
 _symmetry_equiv_pos_as_xyz
  1  'x, y, z'
loop_
 _atom_site_type_symbol
 _atom_site_label
 _atom_site_symmetry_multiplicity
 _atom_site_fract_x
 _atom_site_fract_y
 _atom_site_fract_z
 _atom_site_occupancy
  Pa  Pa0  1  0.750005  0.750000  0.749997  1
  Ga  Ga1  1  0.249995  0.250002  0.250000  1
  Cu  Cu2  1  0.500005  0.499987  0.500009  1
  Cu  Cu3  1  0.999996  0.000011  0.999993  1
