# generated using pymatgen
data_PuCdAu2
_symmetry_space_group_name_H-M   'P 1'
_cell_length_a   4.98516811
_cell_length_b   4.98733101
_cell_length_c   4.98916774
_cell_angle_alpha   59.79526378
_cell_angle_beta   60.08902053
_cell_angle_gamma   60.09121737
_symmetry_Int_Tables_number   1
_chemical_formula_structural   PuCdAu2
_chemical_formula_sum   'Pu1 Cd1 Au2'
_cell_volume   87.69463703
_cell_formula_units_Z   1
loop_
 _symmetry_equiv_pos_site_id
 _symmetry_equiv_pos_as_xyz
  1  'x, y, z'
loop_
 _atom_site_type_symbol
 _atom_site_label
 _atom_site_symmetry_multiplicity
 _atom_site_fract_x
 _atom_site_fract_y
 _atom_site_fract_z
 _atom_site_occupancy
  Pu  Pu0  1  0.749999  0.749999  0.749999  1
  Cd  Cd1  1  0.250000  0.250000  0.250000  1
  Au  Au2  1  0.500057  0.499935  0.500009  1
  Au  Au3  1  0.999941  0.000064  0.999989  1
