# generated using pymatgen
data_NaEu2Sn
_symmetry_space_group_name_H-M   'P 1'
_cell_length_a   5.38862462
_cell_length_b   5.37162921
_cell_length_c   5.38819735
_cell_angle_alpha   60.12508104
_cell_angle_beta   59.99623407
_cell_angle_gamma   60.10499997
_symmetry_Int_Tables_number   1
_chemical_formula_structural   NaEu2Sn
_chemical_formula_sum   'Na1 Eu2 Sn1'
_cell_volume   110.47220070
_cell_formula_units_Z   1
loop_
 _symmetry_equiv_pos_site_id
 _symmetry_equiv_pos_as_xyz
  1  'x, y, z'
loop_
 _atom_site_type_symbol
 _atom_site_label
 _atom_site_symmetry_multiplicity
 _atom_site_fract_x
 _atom_site_fract_y
 _atom_site_fract_z
 _atom_site_occupancy
  Eu  Eu0  1  0.999978  0.000066  0.000004  1
  Eu  Eu1  1  0.500045  0.499958  0.499969  1
  Na  Na2  1  0.249993  0.249993  0.249989  1
  Sn  Sn3  1  0.749984  0.749982  0.750037  1
