# generated using pymatgen
data_MnGa2Tc
_symmetry_space_group_name_H-M   'P 1'
_cell_length_a   4.25028069
_cell_length_b   4.25025085
_cell_length_c   4.25050374
_cell_angle_alpha   60.00197571
_cell_angle_beta   60.00190324
_cell_angle_gamma   60.00160969
_symmetry_Int_Tables_number   1
_chemical_formula_structural   MnGa2Tc
_chemical_formula_sum   'Mn1 Ga2 Tc1'
_cell_volume   54.29696986
_cell_formula_units_Z   1
loop_
 _symmetry_equiv_pos_site_id
 _symmetry_equiv_pos_as_xyz
  1  'x, y, z'
loop_
 _atom_site_type_symbol
 _atom_site_label
 _atom_site_symmetry_multiplicity
 _atom_site_fract_x
 _atom_site_fract_y
 _atom_site_fract_z
 _atom_site_occupancy
  Mn  Mn0  1  0.249992  0.250010  0.249995  1
  Ga  Ga1  1  0.000009  0.999987  0.000001  1
  Ga  Ga2  1  0.499995  0.500008  0.500001  1
  Tc  Tc3  1  0.750004  0.749994  0.750002  1
