# generated using pymatgen
data_LiDy2Os
_symmetry_space_group_name_H-M   'P 1'
_cell_length_a   4.89517720
_cell_length_b   4.89518866
_cell_length_c   4.89519560
_cell_angle_alpha   59.99984566
_cell_angle_beta   60.00016199
_cell_angle_gamma   60.00002255
_symmetry_Int_Tables_number   1
_chemical_formula_structural   LiDy2Os
_chemical_formula_sum   'Li1 Dy2 Os1'
_cell_volume   82.94553310
_cell_formula_units_Z   1
loop_
 _symmetry_equiv_pos_site_id
 _symmetry_equiv_pos_as_xyz
  1  'x, y, z'
loop_
 _atom_site_type_symbol
 _atom_site_label
 _atom_site_symmetry_multiplicity
 _atom_site_fract_x
 _atom_site_fract_y
 _atom_site_fract_z
 _atom_site_occupancy
  Li  Li0  1  0.250000  0.250000  0.250000  1
  Dy  Dy1  1  0.500000  0.500000  0.500001  1
  Dy  Dy2  1  0.000001  -0.000000  -0.000000  1
  Os  Os3  1  0.750000  0.750000  0.750000  1
