# generated using pymatgen
data_PmHgRh2
_symmetry_space_group_name_H-M   'P 1'
_cell_length_a   4.78132372
_cell_length_b   4.78132039
_cell_length_c   4.78130355
_cell_angle_alpha   60.00004148
_cell_angle_beta   59.99952101
_cell_angle_gamma   59.99978685
_symmetry_Int_Tables_number   1
_chemical_formula_structural   PmHgRh2
_chemical_formula_sum   'Pm1 Hg1 Rh2'
_cell_volume   77.29033282
_cell_formula_units_Z   1
loop_
 _symmetry_equiv_pos_site_id
 _symmetry_equiv_pos_as_xyz
  1  'x, y, z'
loop_
 _atom_site_type_symbol
 _atom_site_label
 _atom_site_symmetry_multiplicity
 _atom_site_fract_x
 _atom_site_fract_y
 _atom_site_fract_z
 _atom_site_occupancy
  Pm  Pm0  1  0.750001  0.750000  0.750001  1
  Hg  Hg1  1  0.249999  0.250000  0.250000  1
  Rh  Rh2  1  -0.000000  0.000001  0.000000  1
  Rh  Rh3  1  0.500000  0.499999  0.499999  1
