# generated using pymatgen
data_Lu2CuTc
_symmetry_space_group_name_H-M   'P 1'
_cell_length_a   4.72571447
_cell_length_b   4.72574974
_cell_length_c   4.72569702
_cell_angle_alpha   60.00069350
_cell_angle_beta   60.00013043
_cell_angle_gamma   59.99967243
_symmetry_Int_Tables_number   1
_chemical_formula_structural   Lu2CuTc
_chemical_formula_sum   'Lu2 Cu1 Tc1'
_cell_volume   74.62609245
_cell_formula_units_Z   1
loop_
 _symmetry_equiv_pos_site_id
 _symmetry_equiv_pos_as_xyz
  1  'x, y, z'
loop_
 _atom_site_type_symbol
 _atom_site_label
 _atom_site_symmetry_multiplicity
 _atom_site_fract_x
 _atom_site_fract_y
 _atom_site_fract_z
 _atom_site_occupancy
  Lu  Lu0  1  -0.000001  -0.000002  0.000003  1
  Lu  Lu1  1  0.500001  0.500002  0.499997  1
  Cu  Cu2  1  0.250000  0.249999  0.250000  1
  Tc  Tc3  1  0.749999  0.750001  0.750000  1
