# generated using pymatgen
data_LiCeTl2
_symmetry_space_group_name_H-M   'P 1'
_cell_length_a   5.28682671
_cell_length_b   5.28689704
_cell_length_c   5.28658432
_cell_angle_alpha   59.99544576
_cell_angle_beta   59.99791166
_cell_angle_gamma   59.99708091
_symmetry_Int_Tables_number   1
_chemical_formula_structural   LiCeTl2
_chemical_formula_sum   'Li1 Ce1 Tl2'
_cell_volume   104.47796580
_cell_formula_units_Z   1
loop_
 _symmetry_equiv_pos_site_id
 _symmetry_equiv_pos_as_xyz
  1  'x, y, z'
loop_
 _atom_site_type_symbol
 _atom_site_label
 _atom_site_symmetry_multiplicity
 _atom_site_fract_x
 _atom_site_fract_y
 _atom_site_fract_z
 _atom_site_occupancy
  Li  Li0  1  0.750002  0.749998  0.750001  1
  Ce  Ce1  1  0.249997  0.250006  0.249996  1
  Tl  Tl2  1  -0.000030  -0.000031  0.999975  1
  Tl  Tl3  1  0.500033  0.500029  0.500029  1
