# generated using pymatgen
data_LuMgRh2
_symmetry_space_group_name_H-M   'P 1'
_cell_length_a   4.59242009
_cell_length_b   4.59241885
_cell_length_c   4.59242634
_cell_angle_alpha   59.99977635
_cell_angle_beta   60.00018239
_cell_angle_gamma   60.00025396
_symmetry_Int_Tables_number   1
_chemical_formula_structural   LuMgRh2
_chemical_formula_sum   'Lu1 Mg1 Rh2'
_cell_volume   68.48745032
_cell_formula_units_Z   1
loop_
 _symmetry_equiv_pos_site_id
 _symmetry_equiv_pos_as_xyz
  1  'x, y, z'
loop_
 _atom_site_type_symbol
 _atom_site_label
 _atom_site_symmetry_multiplicity
 _atom_site_fract_x
 _atom_site_fract_y
 _atom_site_fract_z
 _atom_site_occupancy
  Lu  Lu0  1  0.249999  0.250002  0.250002  1
  Mg  Mg1  1  0.749999  0.749999  0.750000  1
  Rh  Rh2  1  0.000000  0.999997  0.999998  1
  Rh  Rh3  1  0.500000  0.500000  0.499999  1
