# generated using pymatgen
data_CaPuRh2
_symmetry_space_group_name_H-M   'P 1'
_cell_length_a   4.79617437
_cell_length_b   4.79617437
_cell_length_c   4.79617437
_cell_angle_alpha   59.70785365
_cell_angle_beta   59.70785365
_cell_angle_gamma   59.70785365
_symmetry_Int_Tables_number   1
_chemical_formula_structural   CaPuRh2
_chemical_formula_sum   'Ca1 Pu1 Rh2'
_cell_volume   77.49584513
_cell_formula_units_Z   1
loop_
 _symmetry_equiv_pos_site_id
 _symmetry_equiv_pos_as_xyz
  1  'x, y, z'
loop_
 _atom_site_type_symbol
 _atom_site_label
 _atom_site_symmetry_multiplicity
 _atom_site_fract_x
 _atom_site_fract_y
 _atom_site_fract_z
 _atom_site_occupancy
  Ca  Ca0  1  0.249999  0.249999  0.249999  1
  Pu  Pu1  1  0.750000  0.750000  0.750000  1
  Rh  Rh2  1  0.999737  0.999737  0.999737  1
  Rh  Rh3  1  0.500262  0.500262  0.500262  1
