# generated using pymatgen
data_Mn6OF11
_symmetry_space_group_name_H-M   'P 1'
_cell_length_a   4.96430523
_cell_length_b   5.88844498
_cell_length_c   16.22087691
_cell_angle_alpha   90.00000000
_cell_angle_beta   90.00000000
_cell_angle_gamma   89.29102133
_symmetry_Int_Tables_number   1
_chemical_formula_structural   Mn6OF11
_chemical_formula_sum   'Mn12 O2 F22'
_cell_volume   474.13299201
_cell_formula_units_Z   2
loop_
 _symmetry_equiv_pos_site_id
 _symmetry_equiv_pos_as_xyz
  1  'x, y, z'
loop_
 _atom_site_type_symbol
 _atom_site_label
 _atom_site_symmetry_multiplicity
 _atom_site_fract_x
 _atom_site_fract_y
 _atom_site_fract_z
 _atom_site_occupancy
  Mn  Mn0  1  0.009860  0.143670  0.418445  1
  Mn  Mn1  1  0.011116  0.829293  0.245953  1
  Mn  Mn2  1  0.981190  0.187088  0.079099  1
  Mn  Mn3  1  0.005524  0.169235  0.751060  1
  Mn  Mn4  1  0.013695  0.832836  0.578120  1
  Mn  Mn5  1  0.994240  0.830245  0.917930  1
  Mn  Mn6  1  0.494240  0.330245  0.582070  1
  Mn  Mn7  1  0.513695  0.332836  0.921880  1
  Mn  Mn8  1  0.511116  0.329293  0.254047  1
  Mn  Mn9  1  0.509860  0.643670  0.081555  1
  Mn  Mn10  1  0.481190  0.687088  0.420901  1
  Mn  Mn11  1  0.505524  0.669235  0.748940  1
  O  O12  1  0.208981  0.910468  0.468133  1
  O  O13  1  0.708981  0.410468  0.031867  1
  F  F14  1  0.224131  0.109748  0.307216  1
  F  F15  1  0.234466  0.105668  0.641664  1
  F  F16  1  0.212759  0.114632  0.973139  1
  F  F17  1  0.250706  0.874270  0.134502  1
  F  F18  1  0.228877  0.889710  0.808033  1
  F  F19  1  0.268206  0.391690  0.143914  1
  F  F20  1  0.282778  0.608119  0.306722  1
  F  F21  1  0.259354  0.392124  0.470082  1
  F  F22  1  0.266292  0.602684  0.640641  1
  F  F23  1  0.278545  0.391358  0.811198  1
  F  F24  1  0.269280  0.617164  0.978488  1
  F  F25  1  0.724131  0.609748  0.192784  1
  F  F26  1  0.750706  0.374270  0.365498  1
  F  F27  1  0.712759  0.614632  0.526861  1
  F  F28  1  0.734466  0.605668  0.858336  1
  F  F29  1  0.728877  0.389710  0.691967  1
  F  F30  1  0.782778  0.108119  0.193278  1
  F  F31  1  0.769280  0.117164  0.521512  1
  F  F32  1  0.768206  0.891690  0.356086  1
  F  F33  1  0.759354  0.892124  0.029918  1
  F  F34  1  0.766292  0.102684  0.859359  1
  F  F35  1  0.778545  0.891358  0.688802  1
