# generated using pymatgen
data_Li2GdTl
_symmetry_space_group_name_H-M   'P 1'
_cell_length_a   4.91069655
_cell_length_b   4.92252257
_cell_length_c   4.92215468
_cell_angle_alpha   59.95828135
_cell_angle_beta   60.07888862
_cell_angle_gamma   60.17837602
_symmetry_Int_Tables_number   1
_chemical_formula_structural   Li2GdTl
_chemical_formula_sum   'Li2 Gd1 Tl1'
_cell_volume   84.27027910
_cell_formula_units_Z   1
loop_
 _symmetry_equiv_pos_site_id
 _symmetry_equiv_pos_as_xyz
  1  'x, y, z'
loop_
 _atom_site_type_symbol
 _atom_site_label
 _atom_site_symmetry_multiplicity
 _atom_site_fract_x
 _atom_site_fract_y
 _atom_site_fract_z
 _atom_site_occupancy
  Li  Li0  1  0.000050  0.999972  0.000040  1
  Li  Li1  1  0.499951  0.500031  0.499961  1
  Gd  Gd2  1  0.250001  0.249999  0.250001  1
  Tl  Tl3  1  0.750000  0.750000  0.750000  1
