# generated using pymatgen
data_LuInNi2
_symmetry_space_group_name_H-M   'P 1'
_cell_length_a   4.51043637
_cell_length_b   4.51044896
_cell_length_c   4.51044566
_cell_angle_alpha   60.00000280
_cell_angle_beta   59.99989447
_cell_angle_gamma   59.99968827
_symmetry_Int_Tables_number   1
_chemical_formula_structural   LuInNi2
_chemical_formula_sum   'Lu1 In1 Ni2'
_cell_volume   64.88456985
_cell_formula_units_Z   1
loop_
 _symmetry_equiv_pos_site_id
 _symmetry_equiv_pos_as_xyz
  1  'x, y, z'
loop_
 _atom_site_type_symbol
 _atom_site_label
 _atom_site_symmetry_multiplicity
 _atom_site_fract_x
 _atom_site_fract_y
 _atom_site_fract_z
 _atom_site_occupancy
  Lu  Lu0  1  0.750000  0.750008  0.749997  1
  In  In1  1  0.250003  0.249997  0.250000  1
  Ni  Ni2  1  0.999991  0.999995  -0.000002  1
  Ni  Ni3  1  0.500006  0.500000  0.500005  1
