# generated using pymatgen
data_LiGd2Ru
_symmetry_space_group_name_H-M   'P 1'
_cell_length_a   4.95477800
_cell_length_b   4.95505071
_cell_length_c   4.95509747
_cell_angle_alpha   59.99470007
_cell_angle_beta   59.99380963
_cell_angle_gamma   59.99975363
_symmetry_Int_Tables_number   1
_chemical_formula_structural   LiGd2Ru
_chemical_formula_sum   'Li1 Gd2 Ru1'
_cell_volume   86.01436367
_cell_formula_units_Z   1
loop_
 _symmetry_equiv_pos_site_id
 _symmetry_equiv_pos_as_xyz
  1  'x, y, z'
loop_
 _atom_site_type_symbol
 _atom_site_label
 _atom_site_symmetry_multiplicity
 _atom_site_fract_x
 _atom_site_fract_y
 _atom_site_fract_z
 _atom_site_occupancy
  Li  Li0  1  0.250000  0.250002  0.250001  1
  Gd  Gd1  1  0.000053  0.000052  0.000056  1
  Gd  Gd2  1  0.499944  0.499952  0.499942  1
  Ru  Ru3  1  0.750003  0.749994  0.750000  1
