# generated using pymatgen
data_Lu2IrRh
_symmetry_space_group_name_H-M   'P 1'
_cell_length_a   4.75734198
_cell_length_b   4.75716173
_cell_length_c   4.75702953
_cell_angle_alpha   60.00128084
_cell_angle_beta   59.99894950
_cell_angle_gamma   59.99701767
_symmetry_Int_Tables_number   1
_chemical_formula_structural   Lu2IrRh
_chemical_formula_sum   'Lu2 Ir1 Rh1'
_cell_volume   76.12443876
_cell_formula_units_Z   1
loop_
 _symmetry_equiv_pos_site_id
 _symmetry_equiv_pos_as_xyz
  1  'x, y, z'
loop_
 _atom_site_type_symbol
 _atom_site_label
 _atom_site_symmetry_multiplicity
 _atom_site_fract_x
 _atom_site_fract_y
 _atom_site_fract_z
 _atom_site_occupancy
  Lu  Lu0  1  0.000010  -0.000006  0.999983  1
  Lu  Lu1  1  0.499997  0.500015  0.499993  1
  Ir  Ir2  1  0.249985  0.249985  0.250012  1
  Rh  Rh3  1  0.750011  0.750008  0.750014  1
