# generated using pymatgen
data_ThInAg2
_symmetry_space_group_name_H-M   'P 1'
_cell_length_a   5.11323515
_cell_length_b   5.14400400
_cell_length_c   5.14835595
_cell_angle_alpha   60.04321677
_cell_angle_beta   60.49812945
_cell_angle_gamma   59.71308288
_symmetry_Int_Tables_number   1
_chemical_formula_structural   ThInAg2
_chemical_formula_sum   'Th1 In1 Ag2'
_cell_volume   95.92756203
_cell_formula_units_Z   1
loop_
 _symmetry_equiv_pos_site_id
 _symmetry_equiv_pos_as_xyz
  1  'x, y, z'
loop_
 _atom_site_type_symbol
 _atom_site_label
 _atom_site_symmetry_multiplicity
 _atom_site_fract_x
 _atom_site_fract_y
 _atom_site_fract_z
 _atom_site_occupancy
  Th  Th0  1  0.750267  0.749344  0.749831  1
  In  In1  1  0.249854  0.250184  0.249979  1
  Ag  Ag2  1  0.499695  0.500234  0.500222  1
  Ag  Ag3  1  0.000184  0.000239  -0.000031  1
