# generated using pymatgen
data_LiEuTl2
_symmetry_space_group_name_H-M   'P 1'
_cell_length_a   5.43562156
_cell_length_b   5.43560559
_cell_length_c   5.43562618
_cell_angle_alpha   59.99995094
_cell_angle_beta   59.99977003
_cell_angle_gamma   59.99987090
_symmetry_Int_Tables_number   1
_chemical_formula_structural   LiEuTl2
_chemical_formula_sum   'Li1 Eu1 Tl2'
_cell_volume   113.56131010
_cell_formula_units_Z   1
loop_
 _symmetry_equiv_pos_site_id
 _symmetry_equiv_pos_as_xyz
  1  'x, y, z'
loop_
 _atom_site_type_symbol
 _atom_site_label
 _atom_site_symmetry_multiplicity
 _atom_site_fract_x
 _atom_site_fract_y
 _atom_site_fract_z
 _atom_site_occupancy
  Eu  Eu0  1  0.250000  0.250000  0.250000  1
  Li  Li1  1  0.749999  0.749999  0.749999  1
  Tl  Tl2  1  0.000000  0.999998  0.000000  1
  Tl  Tl3  1  0.500000  0.500001  0.500000  1
