# generated using pymatgen
data_Gd2TlCd
_symmetry_space_group_name_H-M   'P 1'
_cell_length_a   5.78248226
_cell_length_b   5.78383501
_cell_length_c   5.78307087
_cell_angle_alpha   60.10029293
_cell_angle_beta   60.09247682
_cell_angle_gamma   60.09550637
_symmetry_Int_Tables_number   1
_chemical_formula_structural   Gd2TlCd
_chemical_formula_sum   'Gd2 Tl1 Cd1'
_cell_volume   137.06238642
_cell_formula_units_Z   1
loop_
 _symmetry_equiv_pos_site_id
 _symmetry_equiv_pos_as_xyz
  1  'x, y, z'
loop_
 _atom_site_type_symbol
 _atom_site_label
 _atom_site_symmetry_multiplicity
 _atom_site_fract_x
 _atom_site_fract_y
 _atom_site_fract_z
 _atom_site_occupancy
  Gd  Gd0  1  0.500034  0.500046  0.500024  1
  Gd  Gd1  1  0.999964  -0.000043  0.999982  1
  Tl  Tl2  1  0.750003  0.749999  0.749998  1
  Cd  Cd3  1  0.250001  0.249998  0.249997  1
