# generated using pymatgen
data_ScPaOs2
_symmetry_space_group_name_H-M   'P 1'
_cell_length_a   4.75107679
_cell_length_b   4.75110770
_cell_length_c   4.75108517
_cell_angle_alpha   59.99987214
_cell_angle_beta   60.00003756
_cell_angle_gamma   60.00016946
_symmetry_Int_Tables_number   1
_chemical_formula_structural   ScPaOs2
_chemical_formula_sum   'Sc1 Pa1 Os2'
_cell_volume   75.83418136
_cell_formula_units_Z   1
loop_
 _symmetry_equiv_pos_site_id
 _symmetry_equiv_pos_as_xyz
  1  'x, y, z'
loop_
 _atom_site_type_symbol
 _atom_site_label
 _atom_site_symmetry_multiplicity
 _atom_site_fract_x
 _atom_site_fract_y
 _atom_site_fract_z
 _atom_site_occupancy
  Sc  Sc0  1  0.749999  0.749997  0.750003  1
  Pa  Pa1  1  0.250000  0.250001  0.249998  1
  Os  Os2  1  0.000000  0.000001  0.000000  1
  Os  Os3  1  0.500001  0.500001  0.499999  1
