# generated using pymatgen
data_Mn6O7F5
_symmetry_space_group_name_H-M   'P 1'
_cell_length_a   4.55869871
_cell_length_b   5.67591625
_cell_length_c   15.37155932
_cell_angle_alpha   90.00000000
_cell_angle_beta   89.86997700
_cell_angle_gamma   90.00000000
_symmetry_Int_Tables_number   1
_chemical_formula_structural   Mn6O7F5
_chemical_formula_sum   'Mn12 O14 F10'
_cell_volume   397.73487745
_cell_formula_units_Z   2
loop_
 _symmetry_equiv_pos_site_id
 _symmetry_equiv_pos_as_xyz
  1  'x, y, z'
loop_
 _atom_site_type_symbol
 _atom_site_label
 _atom_site_symmetry_multiplicity
 _atom_site_fract_x
 _atom_site_fract_y
 _atom_site_fract_z
 _atom_site_occupancy
  Mn  Mn0  1  0.014408  0.150742  0.407411  1
  Mn  Mn1  1  0.029738  0.839479  0.243708  1
  Mn  Mn2  1  0.029738  0.160521  0.743708  1
  Mn  Mn3  1  0.001665  0.846354  0.576260  1
  Mn  Mn4  1  0.014408  0.849258  0.907411  1
  Mn  Mn5  1  0.001665  0.153646  0.076260  1
  Mn  Mn6  1  0.512510  0.351103  0.591123  1
  Mn  Mn7  1  0.499266  0.348911  0.920912  1
  Mn  Mn8  1  0.499266  0.651089  0.420912  1
  Mn  Mn9  1  0.505534  0.364304  0.260741  1
  Mn  Mn10  1  0.512510  0.648897  0.091123  1
  Mn  Mn11  1  0.505534  0.635696  0.760741  1
  O  O12  1  0.240690  0.113295  0.301887  1
  O  O13  1  0.221042  0.117419  0.634656  1
  O  O14  1  0.219127  0.112487  0.967518  1
  O  O15  1  0.221042  0.882581  0.134656  1
  O  O16  1  0.219127  0.887513  0.467518  1
  O  O17  1  0.240690  0.886705  0.801887  1
  O  O18  1  0.281512  0.602080  0.313352  1
  O  O19  1  0.281512  0.397920  0.813352  1
  O  O20  1  0.726864  0.381335  0.363207  1
  O  O21  1  0.717343  0.618886  0.530525  1
  O  O22  1  0.726864  0.618665  0.863207  1
  O  O23  1  0.717343  0.381114  0.030525  1
  O  O24  1  0.732879  0.610544  0.197226  1
  O  O25  1  0.732879  0.389456  0.697226  1
  F  F26  1  0.260015  0.379406  0.153884  1
  F  F27  1  0.253568  0.383026  0.486999  1
  F  F28  1  0.253568  0.616974  0.986999  1
  F  F29  1  0.260015  0.620594  0.653884  1
  F  F30  1  0.754718  0.118220  0.513217  1
  F  F31  1  0.774448  0.875574  0.347407  1
  F  F32  1  0.754718  0.881780  0.013217  1
  F  F33  1  0.754671  0.127488  0.189967  1
  F  F34  1  0.774448  0.124426  0.847407  1
  F  F35  1  0.754671  0.872512  0.689967  1
