# generated using pymatgen
data_La2AgIr
_symmetry_space_group_name_H-M   'P 1'
_cell_length_a   5.22500225
_cell_length_b   5.22496778
_cell_length_c   5.22497613
_cell_angle_alpha   60.00022957
_cell_angle_beta   59.99978610
_cell_angle_gamma   59.99962906
_symmetry_Int_Tables_number   1
_chemical_formula_structural   La2AgIr
_chemical_formula_sum   'La2 Ag1 Ir1'
_cell_volume   100.86447789
_cell_formula_units_Z   1
loop_
 _symmetry_equiv_pos_site_id
 _symmetry_equiv_pos_as_xyz
  1  'x, y, z'
loop_
 _atom_site_type_symbol
 _atom_site_label
 _atom_site_symmetry_multiplicity
 _atom_site_fract_x
 _atom_site_fract_y
 _atom_site_fract_z
 _atom_site_occupancy
  La  La0  1  -0.000004  0.000001  0.000002  1
  La  La1  1  0.500002  0.500001  0.500000  1
  Ag  Ag2  1  0.250002  0.249998  0.250000  1
  Ir  Ir3  1  0.750001  0.750001  0.750000  1
