# generated using pymatgen
data_PuBiPd2
_symmetry_space_group_name_H-M   'P 1'
_cell_length_a   4.90236769
_cell_length_b   4.89839506
_cell_length_c   4.89414532
_cell_angle_alpha   60.04834005
_cell_angle_beta   59.93979113
_cell_angle_gamma   59.90340897
_symmetry_Int_Tables_number   1
_chemical_formula_structural   PuBiPd2
_chemical_formula_sum   'Pu1 Bi1 Pd2'
_cell_volume   83.03550545
_cell_formula_units_Z   1
loop_
 _symmetry_equiv_pos_site_id
 _symmetry_equiv_pos_as_xyz
  1  'x, y, z'
loop_
 _atom_site_type_symbol
 _atom_site_label
 _atom_site_symmetry_multiplicity
 _atom_site_fract_x
 _atom_site_fract_y
 _atom_site_fract_z
 _atom_site_occupancy
  Pu  Pu0  1  0.749999  0.750001  0.750000  1
  Bi  Bi1  1  0.250000  0.250000  0.250000  1
  Pd  Pd2  1  0.000005  0.000011  0.999989  1
  Pd  Pd3  1  0.499995  0.499987  0.500011  1
