# generated using pymatgen
data_Rb2SbBr6
_symmetry_space_group_name_H-M   'P 1'
_cell_length_a   7.79361386
_cell_length_b   13.50549937
_cell_length_c   13.50823428
_cell_angle_alpha   131.95074066
_cell_angle_beta   29.93156564
_cell_angle_gamma   106.97698599
_symmetry_Int_Tables_number   1
_chemical_formula_structural   Rb2SbBr6
_chemical_formula_sum   'Rb2 Sb1 Br6'
_cell_volume   333.88140619
_cell_formula_units_Z   1
loop_
 _symmetry_equiv_pos_site_id
 _symmetry_equiv_pos_as_xyz
  1  'x, y, z'
loop_
 _atom_site_type_symbol
 _atom_site_label
 _atom_site_symmetry_multiplicity
 _atom_site_fract_x
 _atom_site_fract_y
 _atom_site_fract_z
 _atom_site_occupancy
  Rb  Rb0  1  0.506691  0.248384  0.745036  1
  Rb  Rb1  1  0.500219  0.751619  0.251510  1
  Sb  Sb2  1  0.000207  0.000000  0.999896  1
  Br  Br3  1  0.492451  0.753917  0.753717  1
  Br  Br4  1  0.508113  0.246085  0.246001  1
  Br  Br5  1  0.014090  0.245996  0.740006  1
  Br  Br6  1  0.990476  0.751875  0.257768  1
  Br  Br7  1  0.998073  0.754004  0.753913  1
  Br  Br8  1  0.997975  0.248126  0.248007  1
