# generated using pymatgen
data_CaSnS3
_symmetry_space_group_name_H-M   'P 1'
_cell_length_a   5.01748619
_cell_length_b   7.08246944
_cell_length_c   7.08209181
_cell_angle_alpha   90.00006885
_cell_angle_beta   89.99980525
_cell_angle_gamma   90.00059780
_symmetry_Int_Tables_number   1
_chemical_formula_structural   CaSnS3
_chemical_formula_sum   'Ca2 Sn2 S6'
_cell_volume   251.67057861
_cell_formula_units_Z   2
loop_
 _symmetry_equiv_pos_site_id
 _symmetry_equiv_pos_as_xyz
  1  'x, y, z'
loop_
 _atom_site_type_symbol
 _atom_site_label
 _atom_site_symmetry_multiplicity
 _atom_site_fract_x
 _atom_site_fract_y
 _atom_site_fract_z
 _atom_site_occupancy
  Ca  Ca0  1  0.499997  0.499989  0.000005  1
  Ca  Ca1  1  0.499993  0.999998  0.499998  1
  Sn  Sn2  1  0.000009  0.000001  0.000004  1
  Sn  Sn3  1  0.000001  0.499999  0.500003  1
  S  S4  1  0.500006  -0.000001  0.999991  1
  S  S5  1  0.500000  0.500001  0.500008  1
  S  S6  1  -0.000002  0.249162  0.749163  1
  S  S7  1  -0.000010  0.750837  0.250839  1
  S  S8  1  0.999995  0.750829  0.749173  1
  S  S9  1  0.000010  0.249186  0.250817  1
