# generated using pymatgen
data_Li2PrAl
_symmetry_space_group_name_H-M   'P 1'
_cell_length_a   4.87853902
_cell_length_b   4.87854416
_cell_length_c   4.87854727
_cell_angle_alpha   60.00015559
_cell_angle_beta   60.00007389
_cell_angle_gamma   60.00009043
_symmetry_Int_Tables_number   1
_chemical_formula_structural   Li2PrAl
_chemical_formula_sum   'Li2 Pr1 Al1'
_cell_volume   82.10253991
_cell_formula_units_Z   1
loop_
 _symmetry_equiv_pos_site_id
 _symmetry_equiv_pos_as_xyz
  1  'x, y, z'
loop_
 _atom_site_type_symbol
 _atom_site_label
 _atom_site_symmetry_multiplicity
 _atom_site_fract_x
 _atom_site_fract_y
 _atom_site_fract_z
 _atom_site_occupancy
  Li  Li0  1  1.000000  -0.000000  -0.000000  1
  Li  Li1  1  0.500000  0.500000  0.500000  1
  Pr  Pr2  1  0.750001  0.750001  0.750001  1
  Al  Al3  1  0.250000  0.250000  0.250000  1
