# generated using pymatgen
data_Pu2HgBi
_symmetry_space_group_name_H-M   'P 1'
_cell_length_a   5.42936349
_cell_length_b   5.42943461
_cell_length_c   5.42934302
_cell_angle_alpha   60.00378352
_cell_angle_beta   60.00466611
_cell_angle_gamma   60.00341959
_symmetry_Int_Tables_number   1
_chemical_formula_structural   Pu2HgBi
_chemical_formula_sum   'Pu2 Hg1 Bi1'
_cell_volume   113.18132203
_cell_formula_units_Z   1
loop_
 _symmetry_equiv_pos_site_id
 _symmetry_equiv_pos_as_xyz
  1  'x, y, z'
loop_
 _atom_site_type_symbol
 _atom_site_label
 _atom_site_symmetry_multiplicity
 _atom_site_fract_x
 _atom_site_fract_y
 _atom_site_fract_z
 _atom_site_occupancy
  Pu  Pu0  1  1.000000  0.999997  0.000002  1
  Pu  Pu1  1  0.500002  0.500004  0.499999  1
  Hg  Hg2  1  0.750000  0.750000  0.750000  1
  Bi  Bi3  1  0.250000  0.250000  0.250000  1
