# generated using pymatgen
data_GdMgZn2
_symmetry_space_group_name_H-M   'P 1'
_cell_length_a   4.87641743
_cell_length_b   4.87634294
_cell_length_c   4.87643726
_cell_angle_alpha   59.99797618
_cell_angle_beta   59.98862769
_cell_angle_gamma   59.99235103
_symmetry_Int_Tables_number   1
_chemical_formula_structural   GdMgZn2
_chemical_formula_sum   'Gd1 Mg1 Zn2'
_cell_volume   81.98108661
_cell_formula_units_Z   1
loop_
 _symmetry_equiv_pos_site_id
 _symmetry_equiv_pos_as_xyz
  1  'x, y, z'
loop_
 _atom_site_type_symbol
 _atom_site_label
 _atom_site_symmetry_multiplicity
 _atom_site_fract_x
 _atom_site_fract_y
 _atom_site_fract_z
 _atom_site_occupancy
  Gd  Gd0  1  0.250001  0.250005  0.249999  1
  Mg  Mg1  1  0.750000  0.749999  0.750002  1
  Zn  Zn2  1  0.000016  0.000005  0.999991  1
  Zn  Zn3  1  0.499985  0.499993  0.500010  1
