# generated using pymatgen
data_Eu2SnHg
_symmetry_space_group_name_H-M   'P 1'
_cell_length_a   5.59027434
_cell_length_b   5.59033825
_cell_length_c   5.59041784
_cell_angle_alpha   60.03226999
_cell_angle_beta   60.03249486
_cell_angle_gamma   60.03005554
_symmetry_Int_Tables_number   1
_chemical_formula_structural   Eu2SnHg
_chemical_formula_sum   'Eu2 Sn1 Hg1'
_cell_volume   123.62648523
_cell_formula_units_Z   1
loop_
 _symmetry_equiv_pos_site_id
 _symmetry_equiv_pos_as_xyz
  1  'x, y, z'
loop_
 _atom_site_type_symbol
 _atom_site_label
 _atom_site_symmetry_multiplicity
 _atom_site_fract_x
 _atom_site_fract_y
 _atom_site_fract_z
 _atom_site_occupancy
  Eu  Eu0  1  -0.000033  0.999978  0.999967  1
  Eu  Eu1  1  0.500035  0.500024  0.500033  1
  Sn  Sn2  1  0.750000  0.750002  0.749997  1
  Hg  Hg3  1  0.249998  0.249997  0.250003  1
