# generated using pymatgen
data_GaFeIr2
_symmetry_space_group_name_H-M   'P 1'
_cell_length_a   4.24840069
_cell_length_b   4.24665806
_cell_length_c   4.24891178
_cell_angle_alpha   60.03298043
_cell_angle_beta   59.98790371
_cell_angle_gamma   60.04458323
_symmetry_Int_Tables_number   1
_chemical_formula_structural   GaFeIr2
_chemical_formula_sum   'Ga1 Fe1 Ir2'
_cell_volume   54.23130254
_cell_formula_units_Z   1
loop_
 _symmetry_equiv_pos_site_id
 _symmetry_equiv_pos_as_xyz
  1  'x, y, z'
loop_
 _atom_site_type_symbol
 _atom_site_label
 _atom_site_symmetry_multiplicity
 _atom_site_fract_x
 _atom_site_fract_y
 _atom_site_fract_z
 _atom_site_occupancy
  Ga  Ga0  1  0.749993  0.750002  0.749999  1
  Fe  Fe1  1  0.250003  0.249997  0.250006  1
  Ir  Ir2  1  0.000256  0.000273  0.000252  1
  Ir  Ir3  1  0.499748  0.499728  0.499743  1
