# generated using pymatgen
data_CeTlAg2
_symmetry_space_group_name_H-M   'P 1'
_cell_length_a   5.10581941
_cell_length_b   5.10569093
_cell_length_c   5.10569036
_cell_angle_alpha   60.02688617
_cell_angle_beta   60.02710254
_cell_angle_gamma   60.02703212
_symmetry_Int_Tables_number   1
_chemical_formula_structural   CeTlAg2
_chemical_formula_sum   'Ce1 Tl1 Ag2'
_cell_volume   94.17274839
_cell_formula_units_Z   1
loop_
 _symmetry_equiv_pos_site_id
 _symmetry_equiv_pos_as_xyz
  1  'x, y, z'
loop_
 _atom_site_type_symbol
 _atom_site_label
 _atom_site_symmetry_multiplicity
 _atom_site_fract_x
 _atom_site_fract_y
 _atom_site_fract_z
 _atom_site_occupancy
  Ce  Ce0  1  0.250000  0.249999  0.250000  1
  Tl  Tl1  1  0.750000  0.750000  0.750000  1
  Ag  Ag2  1  0.499973  0.499973  0.499973  1
  Ag  Ag3  1  0.000026  0.000026  0.000026  1
