# generated using pymatgen
data_MnGaIr2
_symmetry_space_group_name_H-M   'P 1'
_cell_length_a   4.30639795
_cell_length_b   4.30912819
_cell_length_c   4.30812500
_cell_angle_alpha   59.95751175
_cell_angle_beta   59.99275924
_cell_angle_gamma   59.99728946
_symmetry_Int_Tables_number   1
_chemical_formula_structural   MnGaIr2
_chemical_formula_sum   'Mn1 Ga1 Ir2'
_cell_volume   56.50730258
_cell_formula_units_Z   1
loop_
 _symmetry_equiv_pos_site_id
 _symmetry_equiv_pos_as_xyz
  1  'x, y, z'
loop_
 _atom_site_type_symbol
 _atom_site_label
 _atom_site_symmetry_multiplicity
 _atom_site_fract_x
 _atom_site_fract_y
 _atom_site_fract_z
 _atom_site_occupancy
  Mn  Mn0  1  0.750025  0.750023  0.749949  1
  Ga  Ga1  1  0.249935  0.250029  0.249997  1
  Ir  Ir2  1  0.000028  0.999965  0.000028  1
  Ir  Ir3  1  0.500012  0.499983  0.500028  1
