# generated using pymatgen
data_CaCeHg2
_symmetry_space_group_name_H-M   'P 1'
_cell_length_a   5.40357443
_cell_length_b   5.40359682
_cell_length_c   5.40354848
_cell_angle_alpha   59.99898455
_cell_angle_beta   59.99904498
_cell_angle_gamma   59.99887452
_symmetry_Int_Tables_number   1
_chemical_formula_structural   CaCeHg2
_chemical_formula_sum   'Ca1 Ce1 Hg2'
_cell_volume   111.56243092
_cell_formula_units_Z   1
loop_
 _symmetry_equiv_pos_site_id
 _symmetry_equiv_pos_as_xyz
  1  'x, y, z'
loop_
 _atom_site_type_symbol
 _atom_site_label
 _atom_site_symmetry_multiplicity
 _atom_site_fract_x
 _atom_site_fract_y
 _atom_site_fract_z
 _atom_site_occupancy
  Ca  Ca0  1  0.250001  0.250001  0.250001  1
  Ce  Ce1  1  0.750000  0.750000  0.750000  1
  Hg  Hg2  1  0.000000  0.000000  0.000000  1
  Hg  Hg3  1  0.500000  0.500000  0.500000  1
