# generated using pymatgen
data_CaCeMg2
_symmetry_space_group_name_H-M   'P 1'
_cell_length_a   5.56272629
_cell_length_b   5.56265250
_cell_length_c   5.56229755
_cell_angle_alpha   60.00355560
_cell_angle_beta   59.99070815
_cell_angle_gamma   59.99091197
_symmetry_Int_Tables_number   1
_chemical_formula_structural   CaCeMg2
_chemical_formula_sum   'Ca1 Ce1 Mg2'
_cell_volume   121.69147803
_cell_formula_units_Z   1
loop_
 _symmetry_equiv_pos_site_id
 _symmetry_equiv_pos_as_xyz
  1  'x, y, z'
loop_
 _atom_site_type_symbol
 _atom_site_label
 _atom_site_symmetry_multiplicity
 _atom_site_fract_x
 _atom_site_fract_y
 _atom_site_fract_z
 _atom_site_occupancy
  Ca  Ca0  1  0.250000  0.249999  0.250001  1
  Ce  Ce1  1  0.750001  0.750002  0.750000  1
  Mg  Mg2  1  0.500000  0.500000  0.500001  1
  Mg  Mg3  1  0.000001  -0.000001  -0.000000  1
