# generated using pymatgen
data_LaYbZn2
_symmetry_space_group_name_H-M   'P 1'
_cell_length_a   5.23278710
_cell_length_b   5.23290356
_cell_length_c   5.23298251
_cell_angle_alpha   59.99060055
_cell_angle_beta   59.99238746
_cell_angle_gamma   59.99278016
_symmetry_Int_Tables_number   1
_chemical_formula_structural   LaYbZn2
_chemical_formula_sum   'Yb1 La1 Zn2'
_cell_volume   101.30491988
_cell_formula_units_Z   1
loop_
 _symmetry_equiv_pos_site_id
 _symmetry_equiv_pos_as_xyz
  1  'x, y, z'
loop_
 _atom_site_type_symbol
 _atom_site_label
 _atom_site_symmetry_multiplicity
 _atom_site_fract_x
 _atom_site_fract_y
 _atom_site_fract_z
 _atom_site_occupancy
  Yb  Yb0  1  0.749996  0.750015  0.749993  1
  La  La1  1  0.250004  0.249967  0.250022  1
  Zn  Zn2  1  0.499956  0.499965  0.499950  1
  Zn  Zn3  1  0.000044  0.000053  0.000036  1
