# generated using pymatgen
data_CeCdAg2
_symmetry_space_group_name_H-M   'P 1'
_cell_length_a   5.05220995
_cell_length_b   5.05221226
_cell_length_c   5.05218877
_cell_angle_alpha   60.00002093
_cell_angle_beta   60.00027932
_cell_angle_gamma   60.00017329
_symmetry_Int_Tables_number   1
_chemical_formula_structural   CeCdAg2
_chemical_formula_sum   'Ce1 Cd1 Ag2'
_cell_volume   91.18619710
_cell_formula_units_Z   1
loop_
 _symmetry_equiv_pos_site_id
 _symmetry_equiv_pos_as_xyz
  1  'x, y, z'
loop_
 _atom_site_type_symbol
 _atom_site_label
 _atom_site_symmetry_multiplicity
 _atom_site_fract_x
 _atom_site_fract_y
 _atom_site_fract_z
 _atom_site_occupancy
  Ce  Ce0  1  0.749998  0.750001  0.749999  1
  Cd  Cd1  1  0.250000  0.249999  0.250000  1
  Ag  Ag2  1  0.500000  0.499999  0.500000  1
  Ag  Ag3  1  0.000001  0.999999  0.999999  1
