# generated using pymatgen
data_GdSnRh2
_symmetry_space_group_name_H-M   'P 1'
_cell_length_a   4.74551581
_cell_length_b   4.74550966
_cell_length_c   4.74504391
_cell_angle_alpha   60.00088172
_cell_angle_beta   60.00655000
_cell_angle_gamma   59.99280246
_symmetry_Int_Tables_number   1
_chemical_formula_structural   GdSnRh2
_chemical_formula_sum   'Gd1 Sn1 Rh2'
_cell_volume   75.56005754
_cell_formula_units_Z   1
loop_
 _symmetry_equiv_pos_site_id
 _symmetry_equiv_pos_as_xyz
  1  'x, y, z'
loop_
 _atom_site_type_symbol
 _atom_site_label
 _atom_site_symmetry_multiplicity
 _atom_site_fract_x
 _atom_site_fract_y
 _atom_site_fract_z
 _atom_site_occupancy
  Gd  Gd0  1  0.250000  0.250000  0.250000  1
  Sn  Sn1  1  0.749999  0.749999  0.749999  1
  Rh  Rh2  1  0.999995  0.999990  -0.000016  1
  Rh  Rh3  1  0.500005  0.500010  0.500015  1
