# generated using pymatgen
data_NaCeTl2
_symmetry_space_group_name_H-M   'P 1'
_cell_length_a   5.43380887
_cell_length_b   5.43381281
_cell_length_c   5.43352790
_cell_angle_alpha   60.00078411
_cell_angle_beta   60.00026496
_cell_angle_gamma   59.99868378
_symmetry_Int_Tables_number   1
_chemical_formula_structural   NaCeTl2
_chemical_formula_sum   'Na1 Ce1 Tl2'
_cell_volume   113.44230912
_cell_formula_units_Z   1
loop_
 _symmetry_equiv_pos_site_id
 _symmetry_equiv_pos_as_xyz
  1  'x, y, z'
loop_
 _atom_site_type_symbol
 _atom_site_label
 _atom_site_symmetry_multiplicity
 _atom_site_fract_x
 _atom_site_fract_y
 _atom_site_fract_z
 _atom_site_occupancy
  Na  Na0  1  0.749999  0.750001  0.749999  1
  Ce  Ce1  1  0.250002  0.249997  0.249999  1
  Tl  Tl2  1  0.500011  0.499996  0.499997  1
  Tl  Tl3  1  -0.000012  0.000006  0.000005  1
