# generated using pymatgen
data_Li2CeAl
_symmetry_space_group_name_H-M   'P 1'
_cell_length_a   4.83301376
_cell_length_b   4.83318620
_cell_length_c   4.83295700
_cell_angle_alpha   59.99146913
_cell_angle_beta   59.99135624
_cell_angle_gamma   59.99162684
_symmetry_Int_Tables_number   1
_chemical_formula_structural   Li2CeAl
_chemical_formula_sum   'Li2 Ce1 Al1'
_cell_volume   79.81152823
_cell_formula_units_Z   1
loop_
 _symmetry_equiv_pos_site_id
 _symmetry_equiv_pos_as_xyz
  1  'x, y, z'
loop_
 _atom_site_type_symbol
 _atom_site_label
 _atom_site_symmetry_multiplicity
 _atom_site_fract_x
 _atom_site_fract_y
 _atom_site_fract_z
 _atom_site_occupancy
  Li  Li0  1  0.000003  0.000001  0.000006  1
  Li  Li1  1  0.499996  0.499999  0.499995  1
  Ce  Ce2  1  0.750000  0.750000  0.749998  1
  Al  Al3  1  0.249999  0.249999  0.250000  1
