# generated using pymatgen
data_CaEuIn2
_symmetry_space_group_name_H-M   'P 1'
_cell_length_a   5.61583907
_cell_length_b   5.61540986
_cell_length_c   5.61475890
_cell_angle_alpha   59.96141262
_cell_angle_beta   59.96226410
_cell_angle_gamma   59.96431559
_symmetry_Int_Tables_number   1
_chemical_formula_structural   CaEuIn2
_chemical_formula_sum   'Ca1 Eu1 In2'
_cell_volume   125.09626892
_cell_formula_units_Z   1
loop_
 _symmetry_equiv_pos_site_id
 _symmetry_equiv_pos_as_xyz
  1  'x, y, z'
loop_
 _atom_site_type_symbol
 _atom_site_label
 _atom_site_symmetry_multiplicity
 _atom_site_fract_x
 _atom_site_fract_y
 _atom_site_fract_z
 _atom_site_occupancy
  Eu  Eu0  1  0.750000  0.750001  0.749999  1
  Ca  Ca1  1  0.250000  0.250000  0.250001  1
  In  In2  1  0.000025  0.000033  0.000038  1
  In  In3  1  0.499976  0.499967  0.499962  1
