# generated using pymatgen
data_GdCdHg2
_symmetry_space_group_name_H-M   'P 1'
_cell_length_a   5.13191524
_cell_length_b   5.15978501
_cell_length_c   5.14568819
_cell_angle_alpha   59.85838288
_cell_angle_beta   60.04402436
_cell_angle_gamma   60.02953083
_symmetry_Int_Tables_number   1
_chemical_formula_structural   GdCdHg2
_chemical_formula_sum   'Gd1 Cd1 Hg2'
_cell_volume   96.29710912
_cell_formula_units_Z   1
loop_
 _symmetry_equiv_pos_site_id
 _symmetry_equiv_pos_as_xyz
  1  'x, y, z'
loop_
 _atom_site_type_symbol
 _atom_site_label
 _atom_site_symmetry_multiplicity
 _atom_site_fract_x
 _atom_site_fract_y
 _atom_site_fract_z
 _atom_site_occupancy
  Gd  Gd0  1  0.750000  0.749999  0.750000  1
  Cd  Cd1  1  0.250000  0.250001  0.250000  1
  Hg  Hg2  1  -0.000003  0.000010  0.999983  1
  Hg  Hg3  1  0.500003  0.499990  0.500018  1
