# generated using pymatgen
data_YbEuIn2
_symmetry_space_group_name_H-M   'P 1'
_cell_length_a   7.79321549
_cell_length_b   7.76673431
_cell_length_c   7.75252429
_cell_angle_alpha   60.03890642
_cell_angle_beta   60.11342495
_cell_angle_gamma   59.95623197
_symmetry_Int_Tables_number   1
_chemical_formula_structural   YbEuIn2
_chemical_formula_sum   'Yb1 Eu1 In2'
_cell_volume   332.07618763
_cell_formula_units_Z   1
loop_
 _symmetry_equiv_pos_site_id
 _symmetry_equiv_pos_as_xyz
  1  'x, y, z'
loop_
 _atom_site_type_symbol
 _atom_site_label
 _atom_site_symmetry_multiplicity
 _atom_site_fract_x
 _atom_site_fract_y
 _atom_site_fract_z
 _atom_site_occupancy
  Eu  Eu0  1  0.250000  0.250000  0.249999  1
  Yb  Yb1  1  0.750001  0.750000  0.750001  1
  In  In2  1  0.500070  0.499838  0.500189  1
  In  In3  1  0.999932  0.000163  0.999813  1
