# generated using pymatgen
data_TmLuZn2
_symmetry_space_group_name_H-M   'P 1'
_cell_length_a   4.94572792
_cell_length_b   4.94590139
_cell_length_c   4.94587339
_cell_angle_alpha   59.99917509
_cell_angle_beta   60.00102726
_cell_angle_gamma   60.00014551
_symmetry_Int_Tables_number   1
_chemical_formula_structural   TmLuZn2
_chemical_formula_sum   'Tm1 Lu1 Zn2'
_cell_volume   85.54700572
_cell_formula_units_Z   1
loop_
 _symmetry_equiv_pos_site_id
 _symmetry_equiv_pos_as_xyz
  1  'x, y, z'
loop_
 _atom_site_type_symbol
 _atom_site_label
 _atom_site_symmetry_multiplicity
 _atom_site_fract_x
 _atom_site_fract_y
 _atom_site_fract_z
 _atom_site_occupancy
  Tm  Tm0  1  0.750000  0.749996  0.749996  1
  Lu  Lu1  1  0.249991  0.250020  0.249995  1
  Zn  Zn2  1  0.500003  0.499993  0.500005  1
  Zn  Zn3  1  0.000007  0.999992  0.000005  1
