# generated using pymatgen
data_Sc6Al16Ir7
_symmetry_space_group_name_H-M   'P 1'
_cell_length_a   8.75147814
_cell_length_b   8.75147814
_cell_length_c   8.75147814
_cell_angle_alpha   60.00000000
_cell_angle_beta   60.00000000
_cell_angle_gamma   60.00000000
_symmetry_Int_Tables_number   1
_chemical_formula_structural   Sc6Al16Ir7
_chemical_formula_sum   'Sc6 Al16 Ir7'
_cell_volume   473.94641167
_cell_formula_units_Z   1
loop_
 _symmetry_equiv_pos_site_id
 _symmetry_equiv_pos_as_xyz
  1  'x, y, z'
loop_
 _atom_site_type_symbol
 _atom_site_label
 _atom_site_symmetry_multiplicity
 _atom_site_fract_x
 _atom_site_fract_y
 _atom_site_fract_z
 _atom_site_occupancy
  Sc  Sc0  1  0.706189  0.293809  0.293809  1
  Sc  Sc1  1  0.293808  0.706191  0.706191  1
  Sc  Sc2  1  0.293809  0.706189  0.293809  1
  Sc  Sc3  1  0.293809  0.293809  0.706189  1
  Sc  Sc4  1  0.706191  0.293808  0.706191  1
  Sc  Sc5  1  0.706191  0.706191  0.293808  1
  Al  Al6  1  0.334876  0.334876  0.334876  1
  Al  Al7  1  0.334876  0.334876  0.995373  1
  Al  Al8  1  0.995373  0.334876  0.334876  1
  Al  Al9  1  0.334876  0.995373  0.334876  1
  Al  Al10  1  0.665124  0.665124  0.665124  1
  Al  Al11  1  0.665124  0.665124  0.004626  1
  Al  Al12  1  0.665124  0.004626  0.665124  1
  Al  Al13  1  0.004626  0.665124  0.665124  1
  Al  Al14  1  0.119969  0.119969  0.119969  1
  Al  Al15  1  0.119969  0.119969  0.640093  1
  Al  Al16  1  0.640093  0.119969  0.119969  1
  Al  Al17  1  0.119969  0.640093  0.119969  1
  Al  Al18  1  0.880031  0.880031  0.880031  1
  Al  Al19  1  0.880031  0.880031  0.359907  1
  Al  Al20  1  0.880031  0.359907  0.880031  1
  Al  Al21  1  0.359907  0.880031  0.880031  1
  Ir  Ir22  1  0.000000  0.000000  0.000000  1
  Ir  Ir23  1  0.500000  0.000000  0.000000  1
  Ir  Ir24  1  0.000001  0.499999  0.499999  1
  Ir  Ir25  1  0.000000  0.500000  0.000000  1
  Ir  Ir26  1  0.000000  0.000000  0.500000  1
  Ir  Ir27  1  0.499999  0.000001  0.499999  1
  Ir  Ir28  1  0.499999  0.499999  0.000001  1
