# generated using pymatgen
data_Ho2MnOs
_symmetry_space_group_name_H-M   'P 1'
_cell_length_a   4.88743927
_cell_length_b   4.88751832
_cell_length_c   4.88746559
_cell_angle_alpha   60.00012644
_cell_angle_beta   59.99876668
_cell_angle_gamma   59.99844267
_symmetry_Int_Tables_number   1
_chemical_formula_structural   Ho2MnOs
_chemical_formula_sum   'Ho2 Mn1 Os1'
_cell_volume   82.55240740
_cell_formula_units_Z   1
loop_
 _symmetry_equiv_pos_site_id
 _symmetry_equiv_pos_as_xyz
  1  'x, y, z'
loop_
 _atom_site_type_symbol
 _atom_site_label
 _atom_site_symmetry_multiplicity
 _atom_site_fract_x
 _atom_site_fract_y
 _atom_site_fract_z
 _atom_site_occupancy
  Ho  Ho0  1  0.000000  0.000011  0.999998  1
  Ho  Ho1  1  0.500003  0.500002  0.499985  1
  Mn  Mn2  1  0.249993  0.249996  0.250010  1
  Os  Os3  1  0.750005  0.749993  0.750009  1
