# generated using pymatgen
data_Ce2MgAl
_symmetry_space_group_name_H-M   'P 1'
_cell_length_a   5.29502485
_cell_length_b   5.29492993
_cell_length_c   5.29492999
_cell_angle_alpha   59.99912257
_cell_angle_beta   59.99917294
_cell_angle_gamma   59.99909068
_symmetry_Int_Tables_number   1
_chemical_formula_structural   Ce2MgAl
_chemical_formula_sum   'Ce2 Mg1 Al1'
_cell_volume   104.96991979
_cell_formula_units_Z   1
loop_
 _symmetry_equiv_pos_site_id
 _symmetry_equiv_pos_as_xyz
  1  'x, y, z'
loop_
 _atom_site_type_symbol
 _atom_site_label
 _atom_site_symmetry_multiplicity
 _atom_site_fract_x
 _atom_site_fract_y
 _atom_site_fract_z
 _atom_site_occupancy
  Ce  Ce0  1  0.500001  0.499999  0.500001  1
  Ce  Ce1  1  -0.000002  0.000002  -0.000000  1
  Mg  Mg2  1  0.750000  0.750000  0.750000  1
  Al  Al3  1  0.250001  0.249999  0.249999  1
