# generated using pymatgen
data_RbPdCl3
_symmetry_space_group_name_H-M   'P 1'
_cell_length_a   5.00841594
_cell_length_b   5.00751044
_cell_length_c   5.00366949
_cell_angle_alpha   90.09543625
_cell_angle_beta   90.06408229
_cell_angle_gamma   89.99712263
_symmetry_Int_Tables_number   1
_chemical_formula_structural   RbPdCl3
_chemical_formula_sum   'Rb1 Pd1 Cl3'
_cell_volume   125.49025252
_cell_formula_units_Z   1
loop_
 _symmetry_equiv_pos_site_id
 _symmetry_equiv_pos_as_xyz
  1  'x, y, z'
loop_
 _atom_site_type_symbol
 _atom_site_label
 _atom_site_symmetry_multiplicity
 _atom_site_fract_x
 _atom_site_fract_y
 _atom_site_fract_z
 _atom_site_occupancy
  Rb  Rb0  1  0.999726  0.006659  0.999833  1
  Pd  Pd1  1  0.500283  0.514328  0.503161  1
  Cl  Cl2  1  0.000281  0.513166  0.503740  1
  Cl  Cl3  1  0.498542  0.014337  0.500117  1
  Cl  Cl4  1  0.501167  0.511509  0.003147  1
