# generated using pymatgen
data_PmErIn2
_symmetry_space_group_name_H-M   'P 1'
_cell_length_a   5.39249754
_cell_length_b   5.39262275
_cell_length_c   5.39231897
_cell_angle_alpha   60.00362820
_cell_angle_beta   60.00483423
_cell_angle_gamma   60.00307431
_symmetry_Int_Tables_number   1
_chemical_formula_structural   PmErIn2
_chemical_formula_sum   'Pm1 Er1 In2'
_cell_volume   110.88899160
_cell_formula_units_Z   1
loop_
 _symmetry_equiv_pos_site_id
 _symmetry_equiv_pos_as_xyz
  1  'x, y, z'
loop_
 _atom_site_type_symbol
 _atom_site_label
 _atom_site_symmetry_multiplicity
 _atom_site_fract_x
 _atom_site_fract_y
 _atom_site_fract_z
 _atom_site_occupancy
  Pm  Pm0  1  0.750007  0.750005  0.749987  1
  Er  Er1  1  0.249987  0.249984  0.250027  1
  In  In2  1  0.000004  0.000004  -0.000010  1
  In  In3  1  0.500001  0.500005  0.499994  1
