# generated using pymatgen
data_HoLuAg2
_symmetry_space_group_name_H-M   'P 1'
_cell_length_a   5.06818153
_cell_length_b   5.06821815
_cell_length_c   5.06801980
_cell_angle_alpha   60.00328661
_cell_angle_beta   59.99956119
_cell_angle_gamma   60.00324988
_symmetry_Int_Tables_number   1
_chemical_formula_structural   HoLuAg2
_chemical_formula_sum   'Ho1 Lu1 Ag2'
_cell_volume   92.05571995
_cell_formula_units_Z   1
loop_
 _symmetry_equiv_pos_site_id
 _symmetry_equiv_pos_as_xyz
  1  'x, y, z'
loop_
 _atom_site_type_symbol
 _atom_site_label
 _atom_site_symmetry_multiplicity
 _atom_site_fract_x
 _atom_site_fract_y
 _atom_site_fract_z
 _atom_site_occupancy
  Ho  Ho0  1  0.249996  0.249988  0.250010  1
  Lu  Lu1  1  0.750046  0.749996  0.750002  1
  Ag  Ag2  1  0.999976  0.000014  -0.000001  1
  Ag  Ag3  1  0.499980  0.499999  0.499987  1
