# generated using pymatgen
data_Hf6Al16Os7
_symmetry_space_group_name_H-M   'P 1'
_cell_length_a   8.70438092
_cell_length_b   8.70438092
_cell_length_c   8.70438092
_cell_angle_alpha   60.04254548
_cell_angle_beta   60.04254548
_cell_angle_gamma   60.04254548
_symmetry_Int_Tables_number   1
_chemical_formula_structural   Hf6Al16Os7
_chemical_formula_sum   'Hf6 Al16 Os7'
_cell_volume   466.78541628
_cell_formula_units_Z   1
loop_
 _symmetry_equiv_pos_site_id
 _symmetry_equiv_pos_as_xyz
  1  'x, y, z'
loop_
 _atom_site_type_symbol
 _atom_site_label
 _atom_site_symmetry_multiplicity
 _atom_site_fract_x
 _atom_site_fract_y
 _atom_site_fract_z
 _atom_site_occupancy
  Hf  Hf0  1  0.705359  0.294712  0.294712  1
  Hf  Hf1  1  0.294638  0.705289  0.705289  1
  Hf  Hf2  1  0.294712  0.705359  0.294712  1
  Hf  Hf3  1  0.294712  0.294712  0.705359  1
  Hf  Hf4  1  0.705289  0.294638  0.705289  1
  Hf  Hf5  1  0.705289  0.705289  0.294638  1
  Al  Al6  1  0.336628  0.336628  0.336628  1
  Al  Al7  1  0.336627  0.336627  0.990012  1
  Al  Al8  1  0.990012  0.336627  0.336627  1
  Al  Al9  1  0.336627  0.990012  0.336627  1
  Al  Al10  1  0.663373  0.663373  0.663373  1
  Al  Al11  1  0.663373  0.663373  0.009987  1
  Al  Al12  1  0.663373  0.009987  0.663373  1
  Al  Al13  1  0.009987  0.663373  0.663373  1
  Al  Al14  1  0.119760  0.119760  0.119760  1
  Al  Al15  1  0.119721  0.119721  0.641155  1
  Al  Al16  1  0.641155  0.119721  0.119721  1
  Al  Al17  1  0.119721  0.641155  0.119721  1
  Al  Al18  1  0.880240  0.880240  0.880240  1
  Al  Al19  1  0.880279  0.880279  0.358844  1
  Al  Al20  1  0.880279  0.358844  0.880279  1
  Al  Al21  1  0.358844  0.880279  0.880279  1
  Os  Os22  1  0.000001  0.000001  0.000001  1
  Os  Os23  1  0.500001  -0.000000  -0.000000  1
  Os  Os24  1  0.000002  0.499999  0.499999  1
  Os  Os25  1  -0.000000  0.500001  -0.000000  1
  Os  Os26  1  -0.000000  -0.000000  0.500001  1
  Os  Os27  1  0.499999  0.000002  0.499999  1
  Os  Os28  1  0.499999  0.499999  0.000002  1
