# generated using pymatgen
data_Zn7Sb8Ru9
_symmetry_space_group_name_H-M   'P 1'
_cell_length_a   8.49369918
_cell_length_b   8.49369918
_cell_length_c   8.49369918
_cell_angle_alpha   60.00000000
_cell_angle_beta   60.00000000
_cell_angle_gamma   60.00000000
_symmetry_Int_Tables_number   1
_chemical_formula_structural   Zn7Sb8Ru9
_chemical_formula_sum   'Zn7 Sb8 Ru9'
_cell_volume   433.28697053
_cell_formula_units_Z   1
loop_
 _symmetry_equiv_pos_site_id
 _symmetry_equiv_pos_as_xyz
  1  'x, y, z'
loop_
 _atom_site_type_symbol
 _atom_site_label
 _atom_site_symmetry_multiplicity
 _atom_site_fract_x
 _atom_site_fract_y
 _atom_site_fract_z
 _atom_site_occupancy
  Zn  Zn0  1  0.500000  0.000000  0.000000  1
  Zn  Zn1  1  0.000000  0.500000  0.500000  1
  Zn  Zn2  1  0.000000  0.500000  0.000000  1
  Zn  Zn3  1  0.000000  0.000000  0.500000  1
  Zn  Zn4  1  0.500000  0.000000  0.500000  1
  Zn  Zn5  1  0.500000  0.500000  0.000000  1
  Zn  Zn6  1  0.000000  0.000000  0.000000  1
  Sb  Sb7  1  0.725989  0.274010  0.274010  1
  Sb  Sb8  1  0.274010  0.725989  0.725989  1
  Sb  Sb9  1  0.274010  0.725989  0.274010  1
  Sb  Sb10  1  0.274010  0.274010  0.725989  1
  Sb  Sb11  1  0.725989  0.274010  0.725989  1
  Sb  Sb12  1  0.725989  0.725989  0.274010  1
  Sb  Sb13  1  0.250000  0.250000  0.250000  1
  Sb  Sb14  1  0.750000  0.750000  0.750000  1
  Ru  Ru15  1  0.123512  0.123512  0.123512  1
  Ru  Ru16  1  0.123512  0.123512  0.629467  1
  Ru  Ru17  1  0.629467  0.123512  0.123512  1
  Ru  Ru18  1  0.123512  0.629467  0.123512  1
  Ru  Ru19  1  0.876489  0.876489  0.876489  1
  Ru  Ru20  1  0.876489  0.876489  0.370532  1
  Ru  Ru21  1  0.876489  0.370532  0.876489  1
  Ru  Ru22  1  0.370532  0.876489  0.876489  1
  Ru  Ru23  1  0.500000  0.500000  0.500000  1
