# generated using pymatgen
data_KBaO3
_symmetry_space_group_name_H-M   'P 1'
_cell_length_a   4.98872437
_cell_length_b   5.02760104
_cell_length_c   5.02486725
_cell_angle_alpha   90.00399445
_cell_angle_beta   89.99979507
_cell_angle_gamma   89.99865102
_symmetry_Int_Tables_number   1
_chemical_formula_structural   KBaO3
_chemical_formula_sum   'K1 Ba1 O3'
_cell_volume   126.03028233
_cell_formula_units_Z   1
loop_
 _symmetry_equiv_pos_site_id
 _symmetry_equiv_pos_as_xyz
  1  'x, y, z'
loop_
 _atom_site_type_symbol
 _atom_site_label
 _atom_site_symmetry_multiplicity
 _atom_site_fract_x
 _atom_site_fract_y
 _atom_site_fract_z
 _atom_site_occupancy
  K  K0  1  0.999992  -0.000002  0.000000  1
  Ba  Ba1  1  0.499989  0.499983  0.499988  1
  O  O2  1  0.500002  0.500001  0.000011  1
  O  O3  1  0.500002  0.000012  0.500002  1
  O  O4  1  0.000013  0.500003  0.499996  1
