# generated using pymatgen
data_EuReO3
_symmetry_space_group_name_H-M   'P 1'
_cell_length_a   4.00125785
_cell_length_b   4.00125002
_cell_length_c   4.00159441
_cell_angle_alpha   90.00294926
_cell_angle_beta   89.99937955
_cell_angle_gamma   90.00129148
_symmetry_Int_Tables_number   1
_chemical_formula_structural   EuReO3
_chemical_formula_sum   'Eu1 Re1 O3'
_cell_volume   64.06565871
_cell_formula_units_Z   1
loop_
 _symmetry_equiv_pos_site_id
 _symmetry_equiv_pos_as_xyz
  1  'x, y, z'
loop_
 _atom_site_type_symbol
 _atom_site_label
 _atom_site_symmetry_multiplicity
 _atom_site_fract_x
 _atom_site_fract_y
 _atom_site_fract_z
 _atom_site_occupancy
  Eu  Eu0  1  0.999999  -0.000003  0.000004  1
  Re  Re1  1  0.499998  0.499999  0.499997  1
  O  O2  1  0.500005  0.500003  0.000000  1
  O  O3  1  0.499996  -0.000000  0.500002  1
  O  O4  1  0.999999  0.499999  0.499993  1
