# generated using pymatgen
data_LuVO3
_symmetry_space_group_name_H-M   'P 1'
_cell_length_a   3.85522183
_cell_length_b   3.85138437
_cell_length_c   3.85422687
_cell_angle_alpha   89.90792258
_cell_angle_beta   89.96229838
_cell_angle_gamma   89.95236634
_symmetry_Int_Tables_number   1
_chemical_formula_structural   LuVO3
_chemical_formula_sum   'Lu1 V1 O3'
_cell_volume   57.22722752
_cell_formula_units_Z   1
loop_
 _symmetry_equiv_pos_site_id
 _symmetry_equiv_pos_as_xyz
  1  'x, y, z'
loop_
 _atom_site_type_symbol
 _atom_site_label
 _atom_site_symmetry_multiplicity
 _atom_site_fract_x
 _atom_site_fract_y
 _atom_site_fract_z
 _atom_site_occupancy
  Lu  Lu0  1  0.000002  0.999977  0.000007  1
  V  V1  1  0.500000  0.500000  0.499998  1
  O  O2  1  0.499985  0.500016  0.000000  1
  O  O3  1  0.500016  -0.000007  0.500001  1
  O  O4  1  0.999994  0.500011  0.499991  1
