# generated using pymatgen
data_TlPdF3
_symmetry_space_group_name_H-M   'P 1'
_cell_length_a   4.35039490
_cell_length_b   4.35101365
_cell_length_c   4.35238038
_cell_angle_alpha   89.36303729
_cell_angle_beta   89.93530352
_cell_angle_gamma   89.68593465
_symmetry_Int_Tables_number   1
_chemical_formula_structural   TlPdF3
_chemical_formula_sum   'Tl1 Pd1 F3'
_cell_volume   82.37821188
_cell_formula_units_Z   1
loop_
 _symmetry_equiv_pos_site_id
 _symmetry_equiv_pos_as_xyz
  1  'x, y, z'
loop_
 _atom_site_type_symbol
 _atom_site_label
 _atom_site_symmetry_multiplicity
 _atom_site_fract_x
 _atom_site_fract_y
 _atom_site_fract_z
 _atom_site_occupancy
  Tl  Tl0  1  0.998915  0.998052  0.993992  1
  Pd  Pd1  1  0.500027  0.497797  0.487136  1
  F  F2  1  0.000041  0.495974  0.485400  1
  F  F3  1  0.501970  0.500407  0.986999  1
  F  F4  1  0.499043  0.997764  0.486469  1
