# generated using pymatgen
data_ZrInRh2
_symmetry_space_group_name_H-M   'P 1'
_cell_length_a   4.61446329
_cell_length_b   4.61516060
_cell_length_c   4.61458362
_cell_angle_alpha   59.99641917
_cell_angle_beta   59.96473635
_cell_angle_gamma   59.98972125
_symmetry_Int_Tables_number   1
_chemical_formula_structural   ZrInRh2
_chemical_formula_sum   'Zr1 In1 Rh2'
_cell_volume   69.46470312
_cell_formula_units_Z   1
loop_
 _symmetry_equiv_pos_site_id
 _symmetry_equiv_pos_as_xyz
  1  'x, y, z'
loop_
 _atom_site_type_symbol
 _atom_site_label
 _atom_site_symmetry_multiplicity
 _atom_site_fract_x
 _atom_site_fract_y
 _atom_site_fract_z
 _atom_site_occupancy
  Zr  Zr0  1  0.750063  0.750104  0.749866  1
  In  In1  1  0.249899  0.249985  0.250088  1
  Rh  Rh2  1  0.999936  0.000028  -0.000045  1
  Rh  Rh3  1  0.500102  0.499884  0.500091  1
