# generated using pymatgen
data_H(C3N2)4
_symmetry_space_group_name_H-M   'P 1'
_cell_length_a   5.10390191
_cell_length_b   5.10427118
_cell_length_c   5.10390191
_cell_angle_alpha   90.00000000
_cell_angle_beta   90.00000000
_cell_angle_gamma   90.00000000
_symmetry_Int_Tables_number   1
_chemical_formula_structural   H(C3N2)4
_chemical_formula_sum   'H1 C12 N8'
_cell_volume   132.96531845
_cell_formula_units_Z   1
loop_
 _symmetry_equiv_pos_site_id
 _symmetry_equiv_pos_as_xyz
  1  'x, y, z'
loop_
 _atom_site_type_symbol
 _atom_site_label
 _atom_site_symmetry_multiplicity
 _atom_site_fract_x
 _atom_site_fract_y
 _atom_site_fract_z
 _atom_site_occupancy
  H  H0  1  0.500000  0.492433  0.500000  1
  C  C1  1  0.155435  0.150895  0.500000  1
  C  C2  1  0.844460  0.839913  0.500000  1
  C  C3  1  0.844565  0.150895  0.500000  1
  C  C4  1  0.155540  0.839913  0.500000  1
  C  C5  1  0.500000  0.150895  0.155435  1
  C  C6  1  0.500000  0.839913  0.844460  1
  C  C7  1  0.500000  0.839913  0.155540  1
  C  C8  1  0.500000  0.150895  0.844565  1
  C  C9  1  0.155465  0.495450  0.155465  1
  C  C10  1  0.844535  0.495450  0.844535  1
  C  C11  1  0.155465  0.495450  0.844535  1
  C  C12  1  0.844535  0.495450  0.155465  1
  N  N13  1  0.256711  0.252052  0.256711  1
  N  N14  1  0.743208  0.738582  0.743208  1
  N  N15  1  0.743208  0.738582  0.256792  1
  N  N16  1  0.256711  0.252052  0.743289  1
  N  N17  1  0.743289  0.252052  0.743289  1
  N  N18  1  0.256792  0.738582  0.256792  1
  N  N19  1  0.256792  0.738582  0.743208  1
  N  N20  1  0.743289  0.252052  0.256711  1
