# generated using pymatgen
data_KInO3
_symmetry_space_group_name_H-M   'P 1'
_cell_length_a   4.30793821
_cell_length_b   4.30878037
_cell_length_c   4.30858172
_cell_angle_alpha   90.00037925
_cell_angle_beta   89.99983802
_cell_angle_gamma   90.00063289
_symmetry_Int_Tables_number   1
_chemical_formula_structural   KInO3
_chemical_formula_sum   'K1 In1 O3'
_cell_volume   79.97571979
_cell_formula_units_Z   1
loop_
 _symmetry_equiv_pos_site_id
 _symmetry_equiv_pos_as_xyz
  1  'x, y, z'
loop_
 _atom_site_type_symbol
 _atom_site_label
 _atom_site_symmetry_multiplicity
 _atom_site_fract_x
 _atom_site_fract_y
 _atom_site_fract_z
 _atom_site_occupancy
  K  K0  1  0.000000  -0.000005  0.999991  1
  In  In1  1  0.500000  0.500000  0.500002  1
  O  O2  1  0.500001  0.500001  0.000003  1
  O  O3  1  0.499999  0.000002  0.500002  1
  O  O4  1  -0.000000  0.500001  0.500002  1
