# generated using pymatgen
data_V2ReW
_symmetry_space_group_name_H-M   'P 1'
_cell_length_a   4.33086967
_cell_length_b   4.33095672
_cell_length_c   4.33074516
_cell_angle_alpha   60.00068954
_cell_angle_beta   59.99859123
_cell_angle_gamma   60.00194282
_symmetry_Int_Tables_number   1
_chemical_formula_structural   V2ReW
_chemical_formula_sum   'V2 Re1 W1'
_cell_volume   57.43949395
_cell_formula_units_Z   1
loop_
 _symmetry_equiv_pos_site_id
 _symmetry_equiv_pos_as_xyz
  1  'x, y, z'
loop_
 _atom_site_type_symbol
 _atom_site_label
 _atom_site_symmetry_multiplicity
 _atom_site_fract_x
 _atom_site_fract_y
 _atom_site_fract_z
 _atom_site_occupancy
  V  V0  1  -0.000001  0.000001  -0.000001  1
  V  V1  1  0.500001  0.499998  0.500000  1
  Re  Re2  1  0.250003  0.250001  0.250001  1
  W  W3  1  0.749998  0.750000  0.749999  1
