# generated using pymatgen
data_PrErTl2
_symmetry_space_group_name_H-M   'P 1'
_cell_length_a   5.45930131
_cell_length_b   5.45933788
_cell_length_c   5.45934050
_cell_angle_alpha   60.00010960
_cell_angle_beta   60.00000690
_cell_angle_gamma   60.00023672
_symmetry_Int_Tables_number   1
_chemical_formula_structural   PrErTl2
_chemical_formula_sum   'Pr1 Er1 Tl2'
_cell_volume   115.05443972
_cell_formula_units_Z   1
loop_
 _symmetry_equiv_pos_site_id
 _symmetry_equiv_pos_as_xyz
  1  'x, y, z'
loop_
 _atom_site_type_symbol
 _atom_site_label
 _atom_site_symmetry_multiplicity
 _atom_site_fract_x
 _atom_site_fract_y
 _atom_site_fract_z
 _atom_site_occupancy
  Pr  Pr0  1  0.749999  0.750000  0.749997  1
  Er  Er1  1  0.250001  0.249998  0.250007  1
  Tl  Tl2  1  0.000002  0.000001  0.999999  1
  Tl  Tl3  1  0.499999  0.500002  0.499998  1
