# generated using pymatgen
data_NpSnAu2
_symmetry_space_group_name_H-M   'P 1'
_cell_length_a   5.03314844
_cell_length_b   5.03062055
_cell_length_c   5.03469609
_cell_angle_alpha   59.88508618
_cell_angle_beta   60.01714602
_cell_angle_gamma   60.00414653
_symmetry_Int_Tables_number   1
_chemical_formula_structural   NpSnAu2
_chemical_formula_sum   'Np1 Sn1 Au2'
_cell_volume   90.07633541
_cell_formula_units_Z   1
loop_
 _symmetry_equiv_pos_site_id
 _symmetry_equiv_pos_as_xyz
  1  'x, y, z'
loop_
 _atom_site_type_symbol
 _atom_site_label
 _atom_site_symmetry_multiplicity
 _atom_site_fract_x
 _atom_site_fract_y
 _atom_site_fract_z
 _atom_site_occupancy
  Np  Np0  1  0.250001  0.250001  0.250001  1
  Sn  Sn1  1  0.750000  0.750000  0.750000  1
  Au  Au2  1  0.499988  0.500016  0.500004  1
  Au  Au3  1  0.000013  -0.000016  -0.000004  1
