# generated using pymatgen
data_TmLuTl2
_symmetry_space_group_name_H-M   'P 1'
_cell_length_a   5.30648347
_cell_length_b   5.30649539
_cell_length_c   5.30652280
_cell_angle_alpha   59.99968554
_cell_angle_beta   59.99954563
_cell_angle_gamma   60.00004381
_symmetry_Int_Tables_number   1
_chemical_formula_structural   TmLuTl2
_chemical_formula_sum   'Tm1 Lu1 Tl2'
_cell_volume   105.65918680
_cell_formula_units_Z   1
loop_
 _symmetry_equiv_pos_site_id
 _symmetry_equiv_pos_as_xyz
  1  'x, y, z'
loop_
 _atom_site_type_symbol
 _atom_site_label
 _atom_site_symmetry_multiplicity
 _atom_site_fract_x
 _atom_site_fract_y
 _atom_site_fract_z
 _atom_site_occupancy
  Tm  Tm0  1  0.750001  0.750000  0.749999  1
  Lu  Lu1  1  0.250001  0.249998  0.250001  1
  Tl  Tl2  1  0.999999  0.000001  0.000002  1
  Tl  Tl3  1  0.499998  0.500000  0.499998  1
