# generated using pymatgen
data_CsInF3
_symmetry_space_group_name_H-M   'P 1'
_cell_length_a   4.67343587
_cell_length_b   4.67454559
_cell_length_c   4.67492250
_cell_angle_alpha   89.96046971
_cell_angle_beta   89.75384962
_cell_angle_gamma   89.88609524
_symmetry_Int_Tables_number   1
_chemical_formula_structural   CsInF3
_chemical_formula_sum   'Cs1 In1 F3'
_cell_volume   102.12807275
_cell_formula_units_Z   1
loop_
 _symmetry_equiv_pos_site_id
 _symmetry_equiv_pos_as_xyz
  1  'x, y, z'
loop_
 _atom_site_type_symbol
 _atom_site_label
 _atom_site_symmetry_multiplicity
 _atom_site_fract_x
 _atom_site_fract_y
 _atom_site_fract_z
 _atom_site_occupancy
  Cs  Cs0  1  0.002234  0.000707  0.011307  1
  In  In1  1  0.502146  0.500104  0.511876  1
  F  F2  1  0.505076  0.000225  0.513622  1
  F  F3  1  0.498003  0.497333  0.011967  1
  F  F4  1  0.002539  0.501633  0.511226  1
