# generated using pymatgen
data_HoErRu2
_symmetry_space_group_name_H-M   'P 1'
_cell_length_a   4.78536349
_cell_length_b   4.78534928
_cell_length_c   4.78533562
_cell_angle_alpha   59.99999619
_cell_angle_beta   60.00049965
_cell_angle_gamma   60.00053260
_symmetry_Int_Tables_number   1
_chemical_formula_structural   HoErRu2
_chemical_formula_sum   'Ho1 Er1 Ru2'
_cell_volume   77.48709042
_cell_formula_units_Z   1
loop_
 _symmetry_equiv_pos_site_id
 _symmetry_equiv_pos_as_xyz
  1  'x, y, z'
loop_
 _atom_site_type_symbol
 _atom_site_label
 _atom_site_symmetry_multiplicity
 _atom_site_fract_x
 _atom_site_fract_y
 _atom_site_fract_z
 _atom_site_occupancy
  Ho  Ho0  1  0.749998  0.750000  0.749994  1
  Er  Er1  1  0.250008  0.250001  0.249998  1
  Ru  Ru2  1  0.999992  0.000004  0.000004  1
  Ru  Ru3  1  0.500004  0.499998  0.500006  1
