# generated using pymatgen
data_NiPbO3
_symmetry_space_group_name_H-M   'P 1'
_cell_length_a   3.81093046
_cell_length_b   3.81031798
_cell_length_c   3.81041335
_cell_angle_alpha   89.99739457
_cell_angle_beta   90.00211100
_cell_angle_gamma   90.00013414
_symmetry_Int_Tables_number   1
_chemical_formula_structural   NiPbO3
_chemical_formula_sum   'Ni1 Pb1 O3'
_cell_volume   55.33046676
_cell_formula_units_Z   1
loop_
 _symmetry_equiv_pos_site_id
 _symmetry_equiv_pos_as_xyz
  1  'x, y, z'
loop_
 _atom_site_type_symbol
 _atom_site_label
 _atom_site_symmetry_multiplicity
 _atom_site_fract_x
 _atom_site_fract_y
 _atom_site_fract_z
 _atom_site_occupancy
  Ni  Ni0  1  0.500002  0.499993  0.499998  1
  Pb  Pb1  1  0.000061  0.999996  0.999998  1
  O  O2  1  0.499967  0.500016  0.000003  1
  O  O3  1  0.499976  -0.000002  0.500014  1
  O  O4  1  0.999991  0.499993  0.499984  1
