# generated using pymatgen
data_TmLuRu2
_symmetry_space_group_name_H-M   'P 1'
_cell_length_a   4.73008334
_cell_length_b   4.73036662
_cell_length_c   4.73027258
_cell_angle_alpha   59.99484030
_cell_angle_beta   59.99949803
_cell_angle_gamma   59.99709770
_symmetry_Int_Tables_number   1
_chemical_formula_structural   TmLuRu2
_chemical_formula_sum   'Tm1 Lu1 Ru2'
_cell_volume   74.83532553
_cell_formula_units_Z   1
loop_
 _symmetry_equiv_pos_site_id
 _symmetry_equiv_pos_as_xyz
  1  'x, y, z'
loop_
 _atom_site_type_symbol
 _atom_site_label
 _atom_site_symmetry_multiplicity
 _atom_site_fract_x
 _atom_site_fract_y
 _atom_site_fract_z
 _atom_site_occupancy
  Tm  Tm0  1  0.749997  0.750010  0.749984  1
  Lu  Lu1  1  0.250015  0.249983  0.249989  1
  Ru  Ru2  1  0.999972  0.000012  0.000022  1
  Ru  Ru3  1  0.500016  0.499995  0.500004  1
