# generated using pymatgen
data_TlNiF3
_symmetry_space_group_name_H-M   'P 1'
_cell_length_a   4.14316321
_cell_length_b   4.14303415
_cell_length_c   4.14294607
_cell_angle_alpha   89.97904385
_cell_angle_beta   89.99861861
_cell_angle_gamma   89.96384503
_symmetry_Int_Tables_number   1
_chemical_formula_structural   TlNiF3
_chemical_formula_sum   'Tl1 Ni1 F3'
_cell_volume   71.11475531
_cell_formula_units_Z   1
loop_
 _symmetry_equiv_pos_site_id
 _symmetry_equiv_pos_as_xyz
  1  'x, y, z'
loop_
 _atom_site_type_symbol
 _atom_site_label
 _atom_site_symmetry_multiplicity
 _atom_site_fract_x
 _atom_site_fract_y
 _atom_site_fract_z
 _atom_site_occupancy
  Tl  Tl0  1  0.011264  0.002658  0.000607  1
  Ni  Ni1  1  0.512095  0.502500  0.500276  1
  F  F2  1  0.512772  0.502811  0.000043  1
  F  F3  1  0.012168  0.499887  0.498804  1
  F  F4  1  0.511707  0.002143  0.500272  1
