# generated using pymatgen
data_NpOsO3
_symmetry_space_group_name_H-M   'P 1'
_cell_length_a   3.98360287
_cell_length_b   3.98328646
_cell_length_c   3.98341699
_cell_angle_alpha   90.00096271
_cell_angle_beta   90.00065904
_cell_angle_gamma   89.99988709
_symmetry_Int_Tables_number   1
_chemical_formula_structural   NpOsO3
_chemical_formula_sum   'Np1 Os1 O3'
_cell_volume   63.20818908
_cell_formula_units_Z   1
loop_
 _symmetry_equiv_pos_site_id
 _symmetry_equiv_pos_as_xyz
  1  'x, y, z'
loop_
 _atom_site_type_symbol
 _atom_site_label
 _atom_site_symmetry_multiplicity
 _atom_site_fract_x
 _atom_site_fract_y
 _atom_site_fract_z
 _atom_site_occupancy
  Np  Np0  1  0.000003  0.000001  0.999996  1
  Os  Os1  1  0.499996  0.500001  0.499999  1
  O  O2  1  0.499998  0.499995  0.999999  1
  O  O3  1  0.500002  0.000001  0.500002  1
  O  O4  1  0.999999  0.499999  0.500001  1
