# generated using pymatgen
data_KHfO3
_symmetry_space_group_name_H-M   'P 1'
_cell_length_a   4.17783366
_cell_length_b   4.17800099
_cell_length_c   4.17802854
_cell_angle_alpha   89.94713867
_cell_angle_beta   89.86012674
_cell_angle_gamma   89.96242001
_symmetry_Int_Tables_number   1
_chemical_formula_structural   KHfO3
_chemical_formula_sum   'K1 Hf1 O3'
_cell_volume   72.92719573
_cell_formula_units_Z   1
loop_
 _symmetry_equiv_pos_site_id
 _symmetry_equiv_pos_as_xyz
  1  'x, y, z'
loop_
 _atom_site_type_symbol
 _atom_site_label
 _atom_site_symmetry_multiplicity
 _atom_site_fract_x
 _atom_site_fract_y
 _atom_site_fract_z
 _atom_site_occupancy
  K  K0  1  0.990155  0.999340  0.997482  1
  Hf  Hf1  1  0.487939  0.500019  0.497980  1
  O  O2  1  0.485735  0.000122  0.495666  1
  O  O3  1  0.987601  0.501474  0.500801  1
  O  O4  1  0.488572  0.499042  0.998073  1
