# generated using pymatgen
data_NiAgF3
_symmetry_space_group_name_H-M   'P 1'
_cell_length_a   4.00341401
_cell_length_b   4.00424160
_cell_length_c   4.00420600
_cell_angle_alpha   89.86822835
_cell_angle_beta   89.72809961
_cell_angle_gamma   89.96523758
_symmetry_Int_Tables_number   1
_chemical_formula_structural   NiAgF3
_chemical_formula_sum   'Ni1 Ag1 F3'
_cell_volume   64.18906864
_cell_formula_units_Z   1
loop_
 _symmetry_equiv_pos_site_id
 _symmetry_equiv_pos_as_xyz
  1  'x, y, z'
loop_
 _atom_site_type_symbol
 _atom_site_label
 _atom_site_symmetry_multiplicity
 _atom_site_fract_x
 _atom_site_fract_y
 _atom_site_fract_z
 _atom_site_occupancy
  Ni  Ni0  1  0.487661  0.499924  0.497680  1
  Ag  Ag1  1  0.991801  0.997496  0.994735  1
  F  F2  1  0.485530  0.999892  0.494329  1
  F  F3  1  0.987681  0.504935  0.505599  1
  F  F4  1  0.487331  0.497754  0.997655  1
