# generated using pymatgen
data_ZnFeRh2
_symmetry_space_group_name_H-M   'P 1'
_cell_length_a   4.26635504
_cell_length_b   4.26636415
_cell_length_c   4.26636486
_cell_angle_alpha   59.99989501
_cell_angle_beta   59.99992028
_cell_angle_gamma   59.99988185
_symmetry_Int_Tables_number   1
_chemical_formula_structural   ZnFeRh2
_chemical_formula_sum   'Zn1 Fe1 Rh2'
_cell_volume   54.91069203
_cell_formula_units_Z   1
loop_
 _symmetry_equiv_pos_site_id
 _symmetry_equiv_pos_as_xyz
  1  'x, y, z'
loop_
 _atom_site_type_symbol
 _atom_site_label
 _atom_site_symmetry_multiplicity
 _atom_site_fract_x
 _atom_site_fract_y
 _atom_site_fract_z
 _atom_site_occupancy
  Zn  Zn0  1  0.749999  0.749999  0.749999  1
  Fe  Fe1  1  0.249999  0.250000  0.249999  1
  Rh  Rh2  1  0.500000  0.500000  0.499999  1
  Rh  Rh3  1  1.000000  0.999999  0.000000  1
