# generated using pymatgen
data_PmRuO3
_symmetry_space_group_name_H-M   'P 1'
_cell_length_a   3.96381384
_cell_length_b   3.96380949
_cell_length_c   3.96381892
_cell_angle_alpha   89.99972840
_cell_angle_beta   89.99992079
_cell_angle_gamma   90.00026553
_symmetry_Int_Tables_number   1
_chemical_formula_structural   PmRuO3
_chemical_formula_sum   'Pm1 Ru1 O3'
_cell_volume   62.27874166
_cell_formula_units_Z   1
loop_
 _symmetry_equiv_pos_site_id
 _symmetry_equiv_pos_as_xyz
  1  'x, y, z'
loop_
 _atom_site_type_symbol
 _atom_site_label
 _atom_site_symmetry_multiplicity
 _atom_site_fract_x
 _atom_site_fract_y
 _atom_site_fract_z
 _atom_site_occupancy
  Pm  Pm0  1  1.000000  0.000000  1.000000  1
  Ru  Ru1  1  0.500000  0.500000  0.500000  1
  O  O2  1  0.500001  0.500000  0.000001  1
  O  O3  1  0.500001  0.000001  0.500001  1
  O  O4  1  0.000001  0.500002  0.500002  1
