# generated using pymatgen
data_KTlO3
_symmetry_space_group_name_H-M   'P 1'
_cell_length_a   4.40646296
_cell_length_b   4.41705205
_cell_length_c   4.40842673
_cell_angle_alpha   90.00029591
_cell_angle_beta   89.99995450
_cell_angle_gamma   89.99998481
_symmetry_Int_Tables_number   1
_chemical_formula_structural   KTlO3
_chemical_formula_sum   'K1 Tl1 O3'
_cell_volume   85.80374980
_cell_formula_units_Z   1
loop_
 _symmetry_equiv_pos_site_id
 _symmetry_equiv_pos_as_xyz
  1  'x, y, z'
loop_
 _atom_site_type_symbol
 _atom_site_label
 _atom_site_symmetry_multiplicity
 _atom_site_fract_x
 _atom_site_fract_y
 _atom_site_fract_z
 _atom_site_occupancy
  K  K0  1  0.000000  0.000001  1.000000  1
  Tl  Tl1  1  0.500000  0.500000  0.500000  1
  O  O2  1  0.499999  0.499998  0.999999  1
  O  O3  1  0.499999  0.999999  0.499999  1
  O  O4  1  1.000000  0.499999  0.499999  1
