# generated using pymatgen
data_CeCuO3
_symmetry_space_group_name_H-M   'P 1'
_cell_length_a   3.83290416
_cell_length_b   3.83287912
_cell_length_c   3.83290280
_cell_angle_alpha   90.00194284
_cell_angle_beta   89.99948566
_cell_angle_gamma   89.99643779
_symmetry_Int_Tables_number   1
_chemical_formula_structural   CeCuO3
_chemical_formula_sum   'Ce1 Cu1 O3'
_cell_volume   56.30939851
_cell_formula_units_Z   1
loop_
 _symmetry_equiv_pos_site_id
 _symmetry_equiv_pos_as_xyz
  1  'x, y, z'
loop_
 _atom_site_type_symbol
 _atom_site_label
 _atom_site_symmetry_multiplicity
 _atom_site_fract_x
 _atom_site_fract_y
 _atom_site_fract_z
 _atom_site_occupancy
  Ce  Ce0  1  -0.000002  -0.000001  1.000000  1
  Cu  Cu1  1  0.500002  0.500001  0.500002  1
  O  O2  1  0.500001  0.500002  0.000002  1
  O  O3  1  0.500002  0.000001  0.500001  1
  O  O4  1  0.000002  0.500003  0.500001  1
