# generated using pymatgen
data_EuOsO3
_symmetry_space_group_name_H-M   'P 1'
_cell_length_a   3.98836447
_cell_length_b   3.98859133
_cell_length_c   3.98928754
_cell_angle_alpha   89.99942185
_cell_angle_beta   89.99715922
_cell_angle_gamma   89.99916321
_symmetry_Int_Tables_number   1
_chemical_formula_structural   EuOsO3
_chemical_formula_sum   'Eu1 Os1 O3'
_cell_volume   63.46141040
_cell_formula_units_Z   1
loop_
 _symmetry_equiv_pos_site_id
 _symmetry_equiv_pos_as_xyz
  1  'x, y, z'
loop_
 _atom_site_type_symbol
 _atom_site_label
 _atom_site_symmetry_multiplicity
 _atom_site_fract_x
 _atom_site_fract_y
 _atom_site_fract_z
 _atom_site_occupancy
  Eu  Eu0  1  0.000005  0.000001  0.000002  1
  Os  Os1  1  0.500000  0.499999  0.500001  1
  O  O2  1  0.499999  0.499999  -0.000000  1
  O  O3  1  0.499996  -0.000001  0.499999  1
  O  O4  1  0.000000  0.500002  0.499998  1
