# generated using pymatgen
data_Tm2AlZn
_symmetry_space_group_name_H-M   'P 1'
_cell_length_a   5.01397904
_cell_length_b   5.01399032
_cell_length_c   5.01397306
_cell_angle_alpha   60.00013384
_cell_angle_beta   60.00005841
_cell_angle_gamma   59.99987045
_symmetry_Int_Tables_number   1
_chemical_formula_structural   Tm2AlZn
_chemical_formula_sum   'Tm2 Al1 Zn1'
_cell_volume   89.13190919
_cell_formula_units_Z   1
loop_
 _symmetry_equiv_pos_site_id
 _symmetry_equiv_pos_as_xyz
  1  'x, y, z'
loop_
 _atom_site_type_symbol
 _atom_site_label
 _atom_site_symmetry_multiplicity
 _atom_site_fract_x
 _atom_site_fract_y
 _atom_site_fract_z
 _atom_site_occupancy
  Tm  Tm0  1  0.500000  0.500001  0.500000  1
  Tm  Tm1  1  -0.000003  0.999999  0.000001  1
  Al  Al2  1  0.250001  0.250001  0.249999  1
  Zn  Zn3  1  0.750003  0.749999  0.749999  1
