# generated using pymatgen
data_HoLuRu2
_symmetry_space_group_name_H-M   'P 1'
_cell_length_a   4.75791996
_cell_length_b   4.75783423
_cell_length_c   4.75792072
_cell_angle_alpha   59.99985850
_cell_angle_beta   59.99909576
_cell_angle_gamma   59.99927765
_symmetry_Int_Tables_number   1
_chemical_formula_structural   HoLuRu2
_chemical_formula_sum   'Ho1 Lu1 Ru2'
_cell_volume   76.15928153
_cell_formula_units_Z   1
loop_
 _symmetry_equiv_pos_site_id
 _symmetry_equiv_pos_as_xyz
  1  'x, y, z'
loop_
 _atom_site_type_symbol
 _atom_site_label
 _atom_site_symmetry_multiplicity
 _atom_site_fract_x
 _atom_site_fract_y
 _atom_site_fract_z
 _atom_site_occupancy
  Ho  Ho0  1  0.249993  0.250001  0.250004  1
  Lu  Lu1  1  0.750007  0.750002  0.749995  1
  Ru  Ru2  1  0.000001  0.999996  0.000000  1
  Ru  Ru3  1  0.499998  0.499999  0.500001  1
