# generated using pymatgen
data_Lu2ZnPd
_symmetry_space_group_name_H-M   'P 1'
_cell_length_a   4.88115045
_cell_length_b   4.88106579
_cell_length_c   4.88108759
_cell_angle_alpha   59.99901712
_cell_angle_beta   59.99775043
_cell_angle_gamma   59.99853921
_symmetry_Int_Tables_number   1
_chemical_formula_structural   Lu2ZnPd
_chemical_formula_sum   'Lu2 Zn1 Pd1'
_cell_volume   82.22862988
_cell_formula_units_Z   1
loop_
 _symmetry_equiv_pos_site_id
 _symmetry_equiv_pos_as_xyz
  1  'x, y, z'
loop_
 _atom_site_type_symbol
 _atom_site_label
 _atom_site_symmetry_multiplicity
 _atom_site_fract_x
 _atom_site_fract_y
 _atom_site_fract_z
 _atom_site_occupancy
  Lu  Lu0  1  0.000005  0.999991  0.000017  1
  Lu  Lu1  1  0.500004  0.500002  0.499990  1
  Zn  Zn2  1  0.750002  0.750001  0.750001  1
  Pd  Pd3  1  0.249990  0.250006  0.249992  1
