# generated using pymatgen
data_TbYbPt2
_symmetry_space_group_name_H-M   'P 1'
_cell_length_a   4.90737547
_cell_length_b   4.90737474
_cell_length_c   4.90737424
_cell_angle_alpha   59.99999352
_cell_angle_beta   60.00000672
_cell_angle_gamma   59.99998527
_symmetry_Int_Tables_number   1
_chemical_formula_structural   TbYbPt2
_chemical_formula_sum   'Tb1 Yb1 Pt2'
_cell_volume   83.56658293
_cell_formula_units_Z   1
loop_
 _symmetry_equiv_pos_site_id
 _symmetry_equiv_pos_as_xyz
  1  'x, y, z'
loop_
 _atom_site_type_symbol
 _atom_site_label
 _atom_site_symmetry_multiplicity
 _atom_site_fract_x
 _atom_site_fract_y
 _atom_site_fract_z
 _atom_site_occupancy
  Tb  Tb0  1  0.249999  0.249999  0.249999  1
  Yb  Yb1  1  0.749999  0.749999  0.749999  1
  Pt  Pt2  1  0.000000  1.000000  1.000000  1
  Pt  Pt3  1  0.500000  0.500000  0.500000  1
