# generated using pymatgen
data_ZrInPd2
_symmetry_space_group_name_H-M   'P 1'
_cell_length_a   4.69330157
_cell_length_b   4.69449647
_cell_length_c   4.69611034
_cell_angle_alpha   60.05514220
_cell_angle_beta   60.07295062
_cell_angle_gamma   60.07429543
_symmetry_Int_Tables_number   1
_chemical_formula_structural   ZrInPd2
_chemical_formula_sum   'Zr1 In1 Pd2'
_cell_volume   73.27473002
_cell_formula_units_Z   1
loop_
 _symmetry_equiv_pos_site_id
 _symmetry_equiv_pos_as_xyz
  1  'x, y, z'
loop_
 _atom_site_type_symbol
 _atom_site_label
 _atom_site_symmetry_multiplicity
 _atom_site_fract_x
 _atom_site_fract_y
 _atom_site_fract_z
 _atom_site_occupancy
  Zr  Zr0  1  0.750051  0.750047  0.749967  1
  In  In1  1  0.249955  0.249988  0.250033  1
  Pd  Pd2  1  0.999982  0.999988  0.000032  1
  Pd  Pd3  1  0.500012  0.499976  0.499967  1
