# generated using pymatgen
data_CeErMg2
_symmetry_space_group_name_H-M   'P 1'
_cell_length_a   5.35529220
_cell_length_b   5.35515463
_cell_length_c   5.35523034
_cell_angle_alpha   59.99982855
_cell_angle_beta   59.99842111
_cell_angle_gamma   59.99883678
_symmetry_Int_Tables_number   1
_chemical_formula_structural   CeErMg2
_chemical_formula_sum   'Ce1 Er1 Mg2'
_cell_volume   108.59473827
_cell_formula_units_Z   1
loop_
 _symmetry_equiv_pos_site_id
 _symmetry_equiv_pos_as_xyz
  1  'x, y, z'
loop_
 _atom_site_type_symbol
 _atom_site_label
 _atom_site_symmetry_multiplicity
 _atom_site_fract_x
 _atom_site_fract_y
 _atom_site_fract_z
 _atom_site_occupancy
  Ce  Ce0  1  0.249998  0.250016  0.249991  1
  Er  Er1  1  0.750011  0.749948  0.750021  1
  Mg  Mg2  1  -0.000005  0.000020  -0.000006  1
  Mg  Mg3  1  0.499996  0.500016  0.499994  1
