# generated using pymatgen
data_Tm6Al7Cu16
_symmetry_space_group_name_H-M   'P 1'
_cell_length_a   8.62516030
_cell_length_b   8.62515697
_cell_length_c   8.62516757
_cell_angle_alpha   59.99969268
_cell_angle_beta   59.99966676
_cell_angle_gamma   59.99971492
_symmetry_Int_Tables_number   1
_chemical_formula_structural   Tm6Al7Cu16
_chemical_formula_sum   'Tm6 Al7 Cu16'
_cell_volume   453.71557560
_cell_formula_units_Z   1
loop_
 _symmetry_equiv_pos_site_id
 _symmetry_equiv_pos_as_xyz
  1  'x, y, z'
loop_
 _atom_site_type_symbol
 _atom_site_label
 _atom_site_symmetry_multiplicity
 _atom_site_fract_x
 _atom_site_fract_y
 _atom_site_fract_z
 _atom_site_occupancy
  Tm  Tm0  1  0.708732  0.291268  0.291268  1
  Tm  Tm1  1  0.291268  0.708732  0.708732  1
  Tm  Tm2  1  0.291267  0.708732  0.291267  1
  Tm  Tm3  1  0.291268  0.291268  0.708731  1
  Tm  Tm4  1  0.708732  0.291268  0.708732  1
  Tm  Tm5  1  0.708732  0.708732  0.291268  1
  Al  Al6  1  0.500000  0.000000  1.000000  1
  Al  Al7  1  0.999999  0.500000  0.500000  1
  Al  Al8  1  1.000000  0.500000  0.000000  1
  Al  Al9  1  1.000000  0.000000  0.500000  1
  Al  Al10  1  0.500000  -0.000000  0.500000  1
  Al  Al11  1  0.500000  0.500000  0.999999  1
  Al  Al12  1  1.000000  0.000000  1.000000  1
  Cu  Cu13  1  0.327414  0.327414  0.327411  1
  Cu  Cu14  1  0.327415  0.327414  0.017757  1
  Cu  Cu15  1  0.017758  0.327415  0.327413  1
  Cu  Cu16  1  0.327415  0.017757  0.327415  1
  Cu  Cu17  1  0.672588  0.672586  0.672588  1
  Cu  Cu18  1  0.672587  0.672587  0.982241  1
  Cu  Cu19  1  0.672587  0.982242  0.672587  1
  Cu  Cu20  1  0.982239  0.672585  0.672588  1
  Cu  Cu21  1  0.120759  0.120757  0.120759  1
  Cu  Cu22  1  0.120762  0.120761  0.637717  1
  Cu  Cu23  1  0.637716  0.120761  0.120761  1
  Cu  Cu24  1  0.120761  0.637717  0.120759  1
  Cu  Cu25  1  0.879242  0.879240  0.879241  1
  Cu  Cu26  1  0.879237  0.879237  0.362283  1
  Cu  Cu27  1  0.879239  0.362284  0.879240  1
  Cu  Cu28  1  0.362281  0.879239  0.879240  1
