# generated using pymatgen
data_TlFeF3
_symmetry_space_group_name_H-M   'P 1'
_cell_length_a   4.22959863
_cell_length_b   4.22356731
_cell_length_c   4.31014329
_cell_angle_alpha   90.06526289
_cell_angle_beta   90.04639511
_cell_angle_gamma   88.37989248
_symmetry_Int_Tables_number   1
_chemical_formula_structural   TlFeF3
_chemical_formula_sum   'Tl1 Fe1 F3'
_cell_volume   76.96552383
_cell_formula_units_Z   1
loop_
 _symmetry_equiv_pos_site_id
 _symmetry_equiv_pos_as_xyz
  1  'x, y, z'
loop_
 _atom_site_type_symbol
 _atom_site_label
 _atom_site_symmetry_multiplicity
 _atom_site_fract_x
 _atom_site_fract_y
 _atom_site_fract_z
 _atom_site_occupancy
  Tl  Tl0  1  0.992657  0.990756  0.005843  1
  Fe  Fe1  1  0.492212  0.490138  0.506109  1
  F  F2  1  0.492600  0.990017  0.505897  1
  F  F3  1  0.992043  0.490421  0.505990  1
  F  F4  1  0.490488  0.488667  0.006158  1
