# generated using pymatgen
data_Hf6Al16Rh7
_symmetry_space_group_name_H-M   'P 1'
_cell_length_a   8.70240493
_cell_length_b   8.70240493
_cell_length_c   8.70240493
_cell_angle_alpha   60.00000000
_cell_angle_beta   60.00000000
_cell_angle_gamma   60.00000000
_symmetry_Int_Tables_number   1
_chemical_formula_structural   Hf6Al16Rh7
_chemical_formula_sum   'Hf6 Al16 Rh7'
_cell_volume   466.01818594
_cell_formula_units_Z   1
loop_
 _symmetry_equiv_pos_site_id
 _symmetry_equiv_pos_as_xyz
  1  'x, y, z'
loop_
 _atom_site_type_symbol
 _atom_site_label
 _atom_site_symmetry_multiplicity
 _atom_site_fract_x
 _atom_site_fract_y
 _atom_site_fract_z
 _atom_site_occupancy
  Hf  Hf0  1  0.685352  0.314647  0.314647  1
  Hf  Hf1  1  0.314647  0.685352  0.685352  1
  Hf  Hf2  1  0.314647  0.685352  0.314647  1
  Hf  Hf3  1  0.314647  0.314647  0.685352  1
  Hf  Hf4  1  0.685352  0.314647  0.685352  1
  Hf  Hf5  1  0.685352  0.685352  0.314647  1
  Al  Al6  1  0.337685  0.337685  0.337685  1
  Al  Al7  1  0.337685  0.337685  0.986944  1
  Al  Al8  1  0.986944  0.337685  0.337685  1
  Al  Al9  1  0.337685  0.986944  0.337685  1
  Al  Al10  1  0.662315  0.662315  0.662315  1
  Al  Al11  1  0.662315  0.662315  0.013056  1
  Al  Al12  1  0.662315  0.013056  0.662315  1
  Al  Al13  1  0.013056  0.662315  0.662315  1
  Al  Al14  1  0.119724  0.119724  0.119724  1
  Al  Al15  1  0.119724  0.119724  0.640828  1
  Al  Al16  1  0.640828  0.119724  0.119724  1
  Al  Al17  1  0.119724  0.640828  0.119724  1
  Al  Al18  1  0.880275  0.880275  0.880275  1
  Al  Al19  1  0.880275  0.880275  0.359175  1
  Al  Al20  1  0.880275  0.359175  0.880275  1
  Al  Al21  1  0.359175  0.880275  0.880275  1
  Rh  Rh22  1  0.000000  0.000000  0.000000  1
  Rh  Rh23  1  0.500000  0.000000  0.000000  1
  Rh  Rh24  1  0.000000  0.500000  0.500000  1
  Rh  Rh25  1  0.000000  0.500000  0.000000  1
  Rh  Rh26  1  0.000000  0.000000  0.500000  1
  Rh  Rh27  1  0.500000  0.000000  0.500000  1
  Rh  Rh28  1  0.500000  0.500000  0.000000  1
