# generated using pymatgen
data_HoTlRh2
_symmetry_space_group_name_H-M   'P 1'
_cell_length_a   4.73141131
_cell_length_b   4.73139843
_cell_length_c   4.73140455
_cell_angle_alpha   60.00016646
_cell_angle_beta   60.00029252
_cell_angle_gamma   60.00035298
_symmetry_Int_Tables_number   1
_chemical_formula_structural   HoTlRh2
_chemical_formula_sum   'Ho1 Tl1 Rh2'
_cell_volume   74.89588824
_cell_formula_units_Z   1
loop_
 _symmetry_equiv_pos_site_id
 _symmetry_equiv_pos_as_xyz
  1  'x, y, z'
loop_
 _atom_site_type_symbol
 _atom_site_label
 _atom_site_symmetry_multiplicity
 _atom_site_fract_x
 _atom_site_fract_y
 _atom_site_fract_z
 _atom_site_occupancy
  Ho  Ho0  1  0.250002  0.250001  0.250001  1
  Tl  Tl1  1  0.750001  0.750000  0.750001  1
  Rh  Rh2  1  0.999998  1.000000  0.000002  1
  Rh  Rh3  1  0.500001  0.500001  0.499999  1
