# generated using pymatgen
data_KNaO3
_symmetry_space_group_name_H-M   'P 1'
_cell_length_a   4.44053206
_cell_length_b   4.43898719
_cell_length_c   4.43980080
_cell_angle_alpha   90.00080290
_cell_angle_beta   90.00011652
_cell_angle_gamma   89.99984010
_symmetry_Int_Tables_number   1
_chemical_formula_structural   KNaO3
_chemical_formula_sum   'K1 Na1 O3'
_cell_volume   87.51497777
_cell_formula_units_Z   1
loop_
 _symmetry_equiv_pos_site_id
 _symmetry_equiv_pos_as_xyz
  1  'x, y, z'
loop_
 _atom_site_type_symbol
 _atom_site_label
 _atom_site_symmetry_multiplicity
 _atom_site_fract_x
 _atom_site_fract_y
 _atom_site_fract_z
 _atom_site_occupancy
  K  K0  1  0.000001  0.000000  0.000000  1
  Na  Na1  1  0.500000  0.500000  0.500000  1
  O  O2  1  0.500000  0.500000  1.000000  1
  O  O3  1  0.500000  1.000000  0.500000  1
  O  O4  1  1.000000  0.500000  0.500000  1
