# generated using pymatgen
data_ScTaFe2
_symmetry_space_group_name_H-M   'P 1'
_cell_length_a   4.35074578
_cell_length_b   4.35073749
_cell_length_c   4.35074869
_cell_angle_alpha   60.00018193
_cell_angle_beta   60.00005167
_cell_angle_gamma   60.00003435
_symmetry_Int_Tables_number   1
_chemical_formula_structural   ScTaFe2
_chemical_formula_sum   'Sc1 Ta1 Fe2'
_cell_volume   58.23397919
_cell_formula_units_Z   1
loop_
 _symmetry_equiv_pos_site_id
 _symmetry_equiv_pos_as_xyz
  1  'x, y, z'
loop_
 _atom_site_type_symbol
 _atom_site_label
 _atom_site_symmetry_multiplicity
 _atom_site_fract_x
 _atom_site_fract_y
 _atom_site_fract_z
 _atom_site_occupancy
  Sc  Sc0  1  0.249998  0.250002  0.250002  1
  Ta  Ta1  1  0.750001  0.749999  0.750001  1
  Fe  Fe2  1  0.000000  -0.000000  0.000002  1
  Fe  Fe3  1  0.500003  0.500002  0.499998  1
