# generated using pymatgen
data_DyYIr2
_symmetry_space_group_name_H-M   'P 1'
_cell_length_a   4.85914566
_cell_length_b   4.85912567
_cell_length_c   4.85915586
_cell_angle_alpha   60.00013209
_cell_angle_beta   60.00018880
_cell_angle_gamma   60.00020112
_symmetry_Int_Tables_number   1
_chemical_formula_structural   DyYIr2
_chemical_formula_sum   'Dy1 Y1 Ir2'
_cell_volume   81.12703322
_cell_formula_units_Z   1
loop_
 _symmetry_equiv_pos_site_id
 _symmetry_equiv_pos_as_xyz
  1  'x, y, z'
loop_
 _atom_site_type_symbol
 _atom_site_label
 _atom_site_symmetry_multiplicity
 _atom_site_fract_x
 _atom_site_fract_y
 _atom_site_fract_z
 _atom_site_occupancy
  Dy  Dy0  1  0.249999  0.250000  0.250000  1
  Y  Y1  1  0.750001  0.750000  0.750001  1
  Ir  Ir2  1  0.000000  0.000000  -0.000001  1
  Ir  Ir3  1  0.499999  0.499999  0.500000  1
