# generated using pymatgen
data_Al(MoS2)12
_symmetry_space_group_name_H-M   'P 1'
_cell_length_a   20.54690675
_cell_length_b   6.83795490
_cell_length_c   6.83795527
_cell_angle_alpha   60.30563257
_cell_angle_beta   60.37696042
_cell_angle_gamma   60.37696761
_symmetry_Int_Tables_number   1
_chemical_formula_structural   Al(MoS2)12
_chemical_formula_sum   'Al1 Mo12 S24'
_cell_volume   684.76183649
_cell_formula_units_Z   1
loop_
 _symmetry_equiv_pos_site_id
 _symmetry_equiv_pos_as_xyz
  1  'x, y, z'
loop_
 _atom_site_type_symbol
 _atom_site_label
 _atom_site_symmetry_multiplicity
 _atom_site_fract_x
 _atom_site_fract_y
 _atom_site_fract_z
 _atom_site_occupancy
  Al  Al0  1  0.667354  0.003746  0.003746  1
  Mo  Mo1  1  0.130956  0.395385  0.828555  1
  Mo  Mo2  1  0.461526  0.398215  0.824979  1
  Mo  Mo3  1  0.804744  0.393810  0.815906  1
  Mo  Mo4  1  0.275225  0.397332  0.397332  1
  Mo  Mo5  1  0.603367  0.400561  0.400561  1
  Mo  Mo6  1  0.942920  0.395508  0.395508  1
  Mo  Mo7  1  0.130956  0.828555  0.395385  1
  Mo  Mo8  1  0.461526  0.824979  0.398215  1
  Mo  Mo9  1  0.804744  0.815906  0.393810  1
  Mo  Mo10  1  0.131560  0.399927  0.399927  1
  Mo  Mo11  1  0.462443  0.407450  0.407450  1
  Mo  Mo12  1  0.805672  0.392620  0.392620  1
  S  S13  1  0.211886  0.637817  0.637817  1
  S  S14  1  0.542086  0.638539  0.638539  1
  S  S15  1  0.883030  0.636156  0.636156  1
  S  S16  1  0.032709  0.641144  0.641144  1
  S  S17  1  0.362043  0.647173  0.647173  1
  S  S18  1  0.706203  0.631687  0.631687  1
  S  S19  1  0.212955  0.103342  0.638538  1
  S  S20  1  0.544859  0.101324  0.642746  1
  S  S21  1  0.882593  0.095834  0.638221  1
  S  S22  1  0.046810  0.600865  0.139064  1
  S  S23  1  0.379933  0.598333  0.142967  1
  S  S24  1  0.713140  0.600111  0.138308  1
  S  S25  1  0.045828  0.135273  0.135273  1
  S  S26  1  0.378939  0.137345  0.137345  1
  S  S27  1  0.713250  0.138044  0.138044  1
  S  S28  1  0.046810  0.139064  0.600865  1
  S  S29  1  0.379933  0.142967  0.598333  1
  S  S30  1  0.713140  0.138308  0.600111  1
  S  S31  1  0.200779  0.139067  0.139067  1
  S  S32  1  0.533326  0.140321  0.140321  1
  S  S33  1  0.865399  0.140940  0.140940  1
  S  S34  1  0.212955  0.638538  0.103342  1
  S  S35  1  0.544859  0.642746  0.101324  1
  S  S36  1  0.882593  0.638221  0.095834  1
