# generated using pymatgen
data_PrCr2O6
_symmetry_space_group_name_H-M   'P 1'
_cell_length_a   5.35327437
_cell_length_b   5.36209955
_cell_length_c   7.54842666
_cell_angle_alpha   90.00224379
_cell_angle_beta   89.85168912
_cell_angle_gamma   90.07947726
_symmetry_Int_Tables_number   1
_chemical_formula_structural   PrCr2O6
_chemical_formula_sum   'Pr2 Cr4 O12'
_cell_volume   216.67506805
_cell_formula_units_Z   2
loop_
 _symmetry_equiv_pos_site_id
 _symmetry_equiv_pos_as_xyz
  1  'x, y, z'
loop_
 _atom_site_type_symbol
 _atom_site_label
 _atom_site_symmetry_multiplicity
 _atom_site_fract_x
 _atom_site_fract_y
 _atom_site_fract_z
 _atom_site_occupancy
  Pr  Pr0  1  0.012161  0.967735  0.749981  1
  Pr  Pr1  1  0.512278  0.531517  0.249962  1
  Cr  Cr2  1  0.021494  0.493457  0.999345  1
  Cr  Cr3  1  0.019707  0.488461  0.504063  1
  Cr  Cr4  1  0.521486  0.005991  0.499254  1
  Cr  Cr5  1  0.519508  0.010838  0.004052  1
  O  O6  1  0.045301  0.493168  0.243309  1
  O  O7  1  0.220555  0.225198  0.969809  1
  O  O8  1  0.223145  0.223978  0.528702  1
  O  O9  1  0.264557  0.730773  0.527974  1
  O  O10  1  0.262247  0.727737  0.972778  1
  O  O11  1  0.441414  0.994387  0.254264  1
  O  O12  1  0.545078  0.006960  0.743136  1
  O  O13  1  0.723261  0.276364  0.028734  1
  O  O14  1  0.720354  0.275242  0.469782  1
  O  O15  1  0.764854  0.769798  0.027992  1
  O  O16  1  0.762069  0.772846  0.472697  1
  O  O17  1  0.941399  0.505553  0.754167  1
