# generated using pymatgen
data_TeWO6
_symmetry_space_group_name_H-M   'P 1'
_cell_length_a   5.41884525
_cell_length_b   5.41906550
_cell_length_c   7.66382345
_cell_angle_alpha   89.99775070
_cell_angle_beta   134.99964366
_cell_angle_gamma   60.00335721
_symmetry_Int_Tables_number   1
_chemical_formula_structural   TeWO6
_chemical_formula_sum   'Te1 W1 O6'
_cell_volume   112.53095634
_cell_formula_units_Z   1
loop_
 _symmetry_equiv_pos_site_id
 _symmetry_equiv_pos_as_xyz
  1  'x, y, z'
loop_
 _atom_site_type_symbol
 _atom_site_label
 _atom_site_symmetry_multiplicity
 _atom_site_fract_x
 _atom_site_fract_y
 _atom_site_fract_z
 _atom_site_occupancy
  Te  Te0  1  0.998450  0.959258  0.499766  1
  W  W1  1  0.998426  0.959296  0.999746  1
  O  O2  1  0.006265  0.957539  0.254620  1
  O  O3  1  0.993764  0.959902  0.746305  1
  O  O4  1  0.497206  0.461381  0.749446  1
  O  O5  1  0.502443  0.957242  0.248810  1
  O  O6  1  0.493172  0.962385  0.749450  1
  O  O7  1  0.496246  0.457255  0.248165  1
