# generated using pymatgen
data_CaFe2F10
_symmetry_space_group_name_H-M   'P 1'
_cell_length_a   5.51980516
_cell_length_b   7.76230081
_cell_length_c   9.99670396
_cell_angle_alpha   90.00000000
_cell_angle_beta   90.00000000
_cell_angle_gamma   110.28130874
_symmetry_Int_Tables_number   1
_chemical_formula_structural   CaFe2F10
_chemical_formula_sum   'Ca2 Fe4 F20'
_cell_volume   401.76753620
_cell_formula_units_Z   2
loop_
 _symmetry_equiv_pos_site_id
 _symmetry_equiv_pos_as_xyz
  1  'x, y, z'
loop_
 _atom_site_type_symbol
 _atom_site_label
 _atom_site_symmetry_multiplicity
 _atom_site_fract_x
 _atom_site_fract_y
 _atom_site_fract_z
 _atom_site_occupancy
  Ca  Ca0  1  0.529149  0.754176  0.516603  1
  Ca  Ca1  1  0.529149  0.254176  0.983397  1
  Fe  Fe2  1  0.886232  0.599789  0.756134  1
  Fe  Fe3  1  0.117359  0.901798  0.251197  1
  Fe  Fe4  1  0.117359  0.401798  0.248803  1
  Fe  Fe5  1  0.886232  0.099789  0.743866  1
  F  F6  1  0.617847  0.547942  0.875561  1
  F  F7  1  0.380621  0.929493  0.370137  1
  F  F8  1  0.380621  0.429493  0.129863  1
  F  F9  1  0.617847  0.047942  0.624439  1
  F  F10  1  0.655904  0.515319  0.620587  1
  F  F11  1  0.352173  0.004032  0.116221  1
  F  F12  1  0.352173  0.504032  0.383779  1
  F  F13  1  0.655904  0.015319  0.879413  1
  F  F14  1  0.889176  0.812878  0.392099  1
  F  F15  1  0.107777  0.690683  0.886126  1
  F  F16  1  0.107777  0.190683  0.613874  1
  F  F17  1  0.889176  0.312878  0.107901  1
  F  F18  1  0.856614  0.868431  0.141224  1
  F  F19  1  0.155722  0.634897  0.639310  1
  F  F20  1  0.155722  0.134897  0.860690  1
  F  F21  1  0.856614  0.368431  0.358776  1
  F  F22  1  0.853772  0.839098  0.698445  1
  F  F23  1  0.126800  0.656004  0.208232  1
  F  F24  1  0.126800  0.156004  0.291768  1
  F  F25  1  0.853772  0.339098  0.801555  1
