# generated using pymatgen
data_Zn(Mo3O8)2
_symmetry_space_group_name_H-M   'P 1'
_cell_length_a   6.18704700
_cell_length_b   6.18704746
_cell_length_c   9.55773270
_cell_angle_alpha   90.00000000
_cell_angle_beta   90.00000000
_cell_angle_gamma   119.99999753
_symmetry_Int_Tables_number   1
_chemical_formula_structural   Zn(Mo3O8)2
_chemical_formula_sum   'Zn1 Mo6 O16'
_cell_volume   316.84903280
_cell_formula_units_Z   1
loop_
 _symmetry_equiv_pos_site_id
 _symmetry_equiv_pos_as_xyz
  1  'x, y, z'
loop_
 _atom_site_type_symbol
 _atom_site_label
 _atom_site_symmetry_multiplicity
 _atom_site_fract_x
 _atom_site_fract_y
 _atom_site_fract_z
 _atom_site_occupancy
  Zn  Zn0  1  0.666667  0.333333  0.285320  1
  Mo  Mo1  1  0.169216  0.338433  0.071282  1
  Mo  Mo2  1  0.332382  0.166191  0.575353  1
  Mo  Mo3  1  0.169216  0.830784  0.071282  1
  Mo  Mo4  1  0.833809  0.166191  0.575353  1
  Mo  Mo5  1  0.833809  0.667619  0.575353  1
  Mo  Mo6  1  0.661568  0.830784  0.071282  1
  O  O7  1  0.000000  0.000000  0.460944  1
  O  O8  1  0.000000  0.000000  0.968438  1
  O  O9  1  0.666667  0.333333  0.686614  1
  O  O10  1  0.333333  0.666666  0.189120  1
  O  O11  1  0.526680  0.053359  0.456009  1
  O  O12  1  0.477546  0.522455  0.966404  1
  O  O13  1  0.044907  0.522455  0.966404  1
  O  O14  1  0.946640  0.473320  0.456009  1
  O  O15  1  0.526680  0.473320  0.456009  1
  O  O16  1  0.477546  0.955093  0.966404  1
  O  O17  1  0.842006  0.157994  0.179374  1
  O  O18  1  0.699549  0.849773  0.675412  1
  O  O19  1  0.150226  0.300452  0.675412  1
  O  O20  1  0.150225  0.849773  0.675412  1
  O  O21  1  0.315988  0.157994  0.179374  1
  O  O22  1  0.842005  0.684011  0.179374  1
