# generated using pymatgen
data_Mg(Mo3O8)2
_symmetry_space_group_name_H-M   'P 1'
_cell_length_a   6.17990478
_cell_length_b   6.17990446
_cell_length_c   9.56048025
_cell_angle_alpha   90.00000000
_cell_angle_beta   90.00000000
_cell_angle_gamma   120.00000173
_symmetry_Int_Tables_number   1
_chemical_formula_structural   Mg(Mo3O8)2
_chemical_formula_sum   'Mg1 Mo6 O16'
_cell_volume   316.20874550
_cell_formula_units_Z   1
loop_
 _symmetry_equiv_pos_site_id
 _symmetry_equiv_pos_as_xyz
  1  'x, y, z'
loop_
 _atom_site_type_symbol
 _atom_site_label
 _atom_site_symmetry_multiplicity
 _atom_site_fract_x
 _atom_site_fract_y
 _atom_site_fract_z
 _atom_site_occupancy
  Mg  Mg0  1  0.666667  0.333334  0.030603  1
  Mo  Mo1  1  0.662647  0.831324  0.250466  1
  Mo  Mo2  1  0.833775  0.166227  0.746286  1
  Mo  Mo3  1  0.168677  0.337354  0.250466  1
  Mo  Mo4  1  0.833773  0.667548  0.746286  1
  Mo  Mo5  1  0.332453  0.166227  0.746286  1
  Mo  Mo6  1  0.168677  0.831324  0.250466  1
  O  O7  1  0.841414  0.158587  0.142612  1
  O  O8  1  0.699362  0.849681  0.646169  1
  O  O9  1  0.150320  0.300639  0.646169  1
  O  O10  1  0.841413  0.682828  0.142612  1
  O  O11  1  0.317172  0.158587  0.142612  1
  O  O12  1  0.150320  0.849681  0.646169  1
  O  O13  1  0.527339  0.472660  0.865838  1
  O  O14  1  0.045837  0.522918  0.356167  1
  O  O15  1  0.477082  0.954164  0.356167  1
  O  O16  1  0.527339  0.054679  0.865838  1
  O  O17  1  0.000000  0.000000  0.354750  1
  O  O18  1  0.000000  0.000000  0.861226  1
  O  O19  1  0.333333  0.666666  0.132246  1
  O  O20  1  0.945320  0.472660  0.865838  1
  O  O21  1  0.477081  0.522918  0.356167  1
  O  O22  1  0.666667  0.333334  0.634567  1
