# generated using pymatgen
data_HoV2O6
_symmetry_space_group_name_H-M   'P 1'
_cell_length_a   5.16967898
_cell_length_b   5.53712881
_cell_length_c   7.45146170
_cell_angle_alpha   89.99839038
_cell_angle_beta   89.89006829
_cell_angle_gamma   90.02534153
_symmetry_Int_Tables_number   1
_chemical_formula_structural   HoV2O6
_chemical_formula_sum   'Ho2 V4 O12'
_cell_volume   213.29900710
_cell_formula_units_Z   2
loop_
 _symmetry_equiv_pos_site_id
 _symmetry_equiv_pos_as_xyz
  1  'x, y, z'
loop_
 _atom_site_type_symbol
 _atom_site_label
 _atom_site_symmetry_multiplicity
 _atom_site_fract_x
 _atom_site_fract_y
 _atom_site_fract_z
 _atom_site_occupancy
  Ho  Ho0  1  0.014047  0.910262  0.751061  1
  Ho  Ho1  1  0.514363  0.589723  0.250968  1
  V  V2  1  0.027558  0.474739  0.997018  1
  V  V3  1  0.025499  0.462764  0.507123  1
  V  V4  1  0.528004  0.025373  0.496770  1
  V  V5  1  0.525030  0.037151  0.006779  1
  O  O6  1  0.095979  0.470776  0.255705  1
  O  O7  1  0.194046  0.179572  0.947486  1
  O  O8  1  0.189907  0.187859  0.551578  1
  O  O9  1  0.270259  0.699435  0.965849  1
  O  O10  1  0.270484  0.701416  0.532368  1
  O  O11  1  0.424306  0.990878  0.242361  1
  O  O12  1  0.595972  0.029345  0.755790  1
  O  O13  1  0.694206  0.320719  0.447227  1
  O  O14  1  0.689676  0.311996  0.051397  1
  O  O15  1  0.770246  0.798471  0.032097  1
  O  O16  1  0.770510  0.800626  0.465866  1
  O  O17  1  0.924011  0.508896  0.742558  1
