# generated using pymatgen
data_YV3O9
_symmetry_space_group_name_H-M   'P 1'
_cell_length_a   5.13746451
_cell_length_b   15.65654808
_cell_length_c   8.16321929
_cell_angle_alpha   90.19081259
_cell_angle_beta   89.99735255
_cell_angle_gamma   89.99198274
_symmetry_Int_Tables_number   1
_chemical_formula_structural   YV3O9
_chemical_formula_sum   'Y4 V12 O36'
_cell_volume   656.60456961
_cell_formula_units_Z   4
loop_
 _symmetry_equiv_pos_site_id
 _symmetry_equiv_pos_as_xyz
  1  'x, y, z'
loop_
 _atom_site_type_symbol
 _atom_site_label
 _atom_site_symmetry_multiplicity
 _atom_site_fract_x
 _atom_site_fract_y
 _atom_site_fract_z
 _atom_site_occupancy
  Y  Y0  1  0.492722  0.838643  0.757981  1
  Y  Y1  1  0.993005  0.663501  0.240710  1
  Y  Y2  1  0.506963  0.163320  0.240821  1
  Y  Y3  1  0.007354  0.338515  0.757749  1
  V  V4  1  0.006219  0.162199  0.485179  1
  V  V5  1  0.014561  0.498368  0.460310  1
  V  V6  1  0.994310  0.836873  0.517751  1
  V  V7  1  0.486131  0.998295  0.460494  1
  V  V8  1  0.506081  0.337022  0.517287  1
  V  V9  1  0.493994  0.662145  0.485424  1
  V  V10  1  0.970284  0.163333  0.952911  1
  V  V11  1  -0.000302  0.505772  0.963551  1
  V  V12  1  0.015709  0.840756  0.051503  1
  V  V13  1  0.499664  0.005788  0.963648  1
  V  V14  1  0.483750  0.340851  0.051646  1
  V  V15  1  0.529521  0.663111  0.952551  1
  O  O16  1  0.720568  0.084389  0.461937  1
  O  O17  1  0.738878  0.414563  0.467996  1
  O  O18  1  0.830054  0.742223  0.451117  1
  O  O19  1  0.237259  0.085156  0.533047  1
  O  O20  1  0.219006  0.415653  0.550103  1
  O  O21  1  0.330322  0.757505  0.552972  1
  O  O22  1  0.170036  0.257517  0.552510  1
  O  O23  1  0.263125  0.585112  0.533512  1
  O  O24  1  0.280982  0.915606  0.549760  1
  O  O25  1  0.670222  0.242278  0.450675  1
  O  O26  1  0.779883  0.584392  0.461256  1
  O  O27  1  0.761287  0.914480  0.468640  1
  O  O28  1  0.174094  0.255025  0.965436  1
  O  O29  1  0.257384  0.586842  0.967185  1
  O  O30  1  0.272912  0.914280  0.958185  1
  O  O31  1  0.673767  0.241324  0.034319  1
  O  O32  1  0.764307  0.582395  0.054131  1
  O  O33  1  0.763221  0.912400  0.034933  1
  O  O34  1  0.735377  0.082423  0.053729  1
  O  O35  1  0.736043  0.412470  0.035183  1
  O  O36  1  0.826018  0.741248  0.034003  1
  O  O37  1  0.242264  0.086899  0.967998  1
  O  O38  1  0.226545  0.414275  0.957956  1
  O  O39  1  0.326051  0.754916  0.965090  1
  O  O40  1  0.886616  0.168227  0.755842  1
  O  O41  1  0.906467  0.495014  0.768629  1
  O  O42  1  0.936095  0.830246  0.727344  1
  O  O43  1  0.402655  0.006677  0.261836  1
  O  O44  1  0.394433  0.330660  0.250419  1
  O  O45  1  0.435241  0.668458  0.276121  1
  O  O46  1  0.064516  0.168379  0.275765  1
  O  O47  1  0.099110  0.506754  0.261816  1
  O  O48  1  0.104835  0.830471  0.250046  1
  O  O49  1  0.564207  0.330300  0.726797  1
  O  O50  1  0.614147  0.667932  0.755646  1
  O  O51  1  0.592106  0.995020  0.768551  1
