# generated using pymatgen
data_ReWO6
_symmetry_space_group_name_H-M   'P 1'
_cell_length_a   5.41843817
_cell_length_b   5.41987713
_cell_length_c   7.66403638
_cell_angle_alpha   89.96410109
_cell_angle_beta   134.97802421
_cell_angle_gamma   60.02134937
_symmetry_Int_Tables_number   1
_chemical_formula_structural   ReWO6
_chemical_formula_sum   'Re1 W1 O6'
_cell_volume   112.59513250
_cell_formula_units_Z   1
loop_
 _symmetry_equiv_pos_site_id
 _symmetry_equiv_pos_as_xyz
  1  'x, y, z'
loop_
 _atom_site_type_symbol
 _atom_site_label
 _atom_site_symmetry_multiplicity
 _atom_site_fract_x
 _atom_site_fract_y
 _atom_site_fract_z
 _atom_site_occupancy
  Re  Re0  1  0.999825  0.960706  0.499633  1
  W  W1  1  0.999794  0.960668  0.999591  1
  O  O2  1  0.011694  0.957861  0.258591  1
  O  O3  1  0.988536  0.965208  0.740914  1
  O  O4  1  0.487326  0.467162  0.745371  1
  O  O5  1  0.501976  0.964959  0.246622  1
  O  O6  1  0.499294  0.954933  0.753121  1
  O  O7  1  0.510051  0.454367  0.252995  1
